download/pglib-opf-master/api/pglib_opf_case1951_rte__api.m
%%%%%%%%%%%%%%%%%%%%%%%%%%%%%%%%%%%%%%%%%%%%%%%%%%%%%%%%%%%%%%%%%%%%%%%%%%%
%%%%                                                                  %%%%%
%%%%    IEEE PES Power Grid Library - Optimal Power Flow - v19.05     %%%%%
%%%%          (https://github.com/power-grid-lib/pglib-opf)           %%%%%
%%%%             Benchmark Group - Active Power Increase              %%%%%
%%%%                         08 - May - 2019                          %%%%%
%%%%                                                                  %%%%%
%%%%%%%%%%%%%%%%%%%%%%%%%%%%%%%%%%%%%%%%%%%%%%%%%%%%%%%%%%%%%%%%%%%%%%%%%%%
function mpc = pglib_opf_case1951_rte__api
mpc.version = '2';
mpc.baseMVA = 100.0;

%% bus data
%	bus_i	type	Pd	Qd	Gs	Bs	area	Vm	Va	baseKV	zone	Vmax	Vmin
mpc.bus = [
	1	 1	 43.69	 19.50	 0.0	 0.0	 1	    0.98889	    0.00000	 225.0	 1	    1.08889	    0.88889;
	2	 1	 0.0	 0.0	 0.0	 0.0	 1	    1.07552	    0.00000	 380.0	 1	    1.10263	    1.04841;
	3	 1	 294.28	 16.40	 0.0	 0.0	 1	    1.04444	    0.00000	 225.0	 1	    1.08444	    1.00444;
	4	 1	 0.0	 0.0	 0.0	 0.0	 1	    1.00334	    0.00000	 150.0	 1	    1.10667	    0.90000;
	5	 1	 62.17	 13.50	 0.0	 0.0	 1	    1.01111	    0.00000	 225.0	 1	    1.08889	    0.93333;
	6	 1	 43.93	 11.60	 0.0	 0.0	 1	    1.01111	    0.00000	 225.0	 1	    1.08889	    0.93333;
	7	 1	 0.0	 0.0	 0.0	 0.0	 1	    1.07237	    0.00000	 380.0	 1	    1.10526	    1.03947;
	8	 1	 0.0	 0.0	 0.0	 0.0	 1	    1.07237	    0.00000	 380.0	 1	    1.10526	    1.03947;
	9	 1	 0.0	 0.0	 0.0	 0.0	 1	    1.04739	    0.00000	 225.0	 1	    1.09035	    1.00444;
	10	 1	 232.11	 48.90	 0.0	 0.0	 1	    1.01111	    0.00000	 225.0	 1	    1.08889	    0.93333;
	11	 1	 69.25	 14.60	 0.0	 0.0	 1	    1.04666	    0.00000	 225.0	 1	    1.08889	    1.00444;
	12	 1	 33.36	 24.40	 0.0	 0.0	 1	    1.04666	    0.00000	 225.0	 1	    1.08889	    1.00444;
	13	 1	 213.03	 52.50	 0.0	 0.0	 1	    1.04666	    0.00000	 225.0	 1	    1.08889	    1.00444;
	14	 1	 90.97	 7.30	 0.0	 0.0	 1	    1.01626	    0.00000	 225.0	 1	    1.08252	    0.95000;
	15	 1	 0.0	 0.0	 0.0	 0.0	 1	    1.04666	    0.00000	 225.0	 1	    1.08889	    1.00444;
	16	 1	 0.0	 0.0	 0.0	 0.0	 1	    1.04666	    0.00000	 225.0	 1	    1.08889	    1.00444;
	17	 1	 79.45	 0.90	 0.0	 0.0	 1	    0.98889	    0.00000	 225.0	 1	    1.08889	    0.88889;
	18	 1	 14.76	 7.10	 0.0	 0.0	 1	    1.04150	    0.00000	 225.0	 1	    1.09633	    0.98667;
	19	 1	 81.49	 23.00	 0.0	 0.0	 1	    1.04666	    0.00000	 225.0	 1	    1.08889	    1.00444;
	20	 1	 35.04	 7.20	 0.0	 0.0	 1	    1.04666	    0.00000	 225.0	 1	    1.08889	    1.00444;
	21	 1	 93.37	 31.20	 0.0	 0.0	 1	    1.04666	    0.00000	 225.0	 1	    1.08889	    1.00444;
	22	 1	 126.74	 22.80	 0.0	 0.0	 1	    1.03778	    0.00000	 225.0	 1	    1.08889	    0.98667;
	23	 1	 49.33	 2.70	 0.0	 0.0	 1	    0.98889	    0.00000	 225.0	 1	    1.08889	    0.88889;
	25	 1	 67.45	 8.10	 0.0	 0.0	 1	    1.04666	    0.00000	 225.0	 1	    1.08444	    1.00889;
	26	 1	 35.16	 6.40	 0.0	 0.0	 1	    1.04666	    0.00000	 225.0	 1	    1.08444	    1.00889;
	27	 1	 122.53	 38.00	 0.0	 0.0	 1	    1.01111	    0.00000	 225.0	 1	    1.08889	    0.93333;
	28	 1	 206.55	 40.00	 0.0	 0.0	 1	    1.04666	    0.00000	 225.0	 1	    1.08889	    1.00444;
	29	 1	 0.0	 0.0	 0.0	 0.0	 1	    1.07684	    0.00000	 380.0	 1	    1.10526	    1.04842;
	30	 1	 0.0	 0.0	 0.0	 0.0	 1	    1.07684	    0.00000	 380.0	 1	    1.10526	    1.04842;
	31	 1	 43.45	 31.70	 0.0	 0.0	 1	    1.04666	    0.00000	 225.0	 1	    1.08444	    1.00889;
	33	 1	 159.86	 20.10	 0.0	 0.0	 1	    1.04666	    0.00000	 225.0	 1	    1.08444	    1.00889;
	34	 1	 107.29	 29.60	 0.0	 0.0	 1	    1.04666	    0.00000	 225.0	 1	    1.08889	    1.00444;
	2013	 1	 0.0	 0.0	 0.0	 0.0	 1	    1.04666	    0.00000	 225.0	 1	    1.08889	    1.00444;
	35	 1	 10.30	 -0.40	 0.0	 0.0	 1	    1.02333	    0.00000	 150.0	 1	    1.08000	    0.96667;
	36	 1	 26.76	 6.70	 0.0	 80.0	 1	    1.04606	    0.00000	 225.0	 1	    1.09212	    1.00000;
	37	 1	 0.0	 0.0	 0.0	 0.0	 1	    1.07655	    0.00000	 380.0	 1	    1.10526	    1.04785;
	38	 1	 173.06	 18.90	 0.0	 0.0	 1	    1.03778	    0.00000	 225.0	 1	    1.08889	    0.98667;
	39	 1	 141.38	 31.50	 0.0	 0.0	 1	    1.02889	    0.00000	 225.0	 1	    1.08889	    0.96889;
	40	 1	 233.79	 53.60	 0.0	 0.0	 1	    1.05263	    0.00000	 380.0	 1	    1.10526	    1.00000;
	41	 1	 77.65	 12.60	 0.0	 0.0	 1	    1.01111	    0.00000	 225.0	 1	    1.08889	    0.93333;
	42	 1	 53.53	 15.60	 0.0	 0.0	 1	    0.98889	    0.00000	 225.0	 1	    1.08889	    0.88889;
	43	 1	 56.29	 11.70	 0.0	 0.0	 1	    0.98889	    0.00000	 225.0	 1	    1.08889	    0.88889;
	44	 1	 457.62	 62.50	 0.0	 0.0	 1	    1.04470	    0.00000	 225.0	 1	    1.08496	    1.00444;
	45	 1	 161.50	 -38.50	 0.0	 0.0	 1	    1.04666	    0.00000	 225.0	 1	    1.08889	    1.00444;
	46	 2	 0.0	 0.0	 0.0	 0.0	 1	    1.00422	    0.00000	 150.0	 1	    1.10843	    0.90000;
	47	 1	 0.0	 0.0	 0.0	 0.0	 1	    1.04666	    0.00000	 225.0	 1	    1.08889	    1.00444;
	48	 1	 0.0	 0.0	 0.0	 0.0	 1	    1.04666	    0.00000	 225.0	 1	    1.08889	    1.00444;
	49	 1	 148.22	 43.40	 0.0	 0.0	 1	    1.04666	    0.00000	 225.0	 1	    1.08889	    1.00444;
	50	 1	 12.00	 3.70	 0.0	 0.0	 1	    1.04666	    0.00000	 225.0	 1	    1.08889	    1.00444;
	51	 1	 0.0	 0.0	 0.0	 0.0	 1	    1.04445	    0.00000	 225.0	 1	    1.08889	    1.00000;
	52	 1	 89.53	 28.00	 0.0	 0.0	 1	    0.98889	    0.00000	 225.0	 1	    1.08889	    0.88889;
	53	 1	 192.26	 38.20	 0.0	 0.0	 1	    1.02889	    0.00000	 225.0	 1	    1.08889	    0.96889;
	54	 1	 0.0	 0.0	 0.0	 0.0	 1	    1.05263	    0.00000	 380.0	 1	    1.10526	    1.00000;
	55	 1	 37.20	 11.00	 0.0	 0.0	 1	    1.04666	    0.00000	 225.0	 1	    1.08444	    1.00889;
	56	 1	 14.70	 -1.00	 0.0	 0.0	 1	    1.04666	    0.00000	 225.0	 1	    1.08444	    1.00889;
	1827	 1	 241.47	 11.70	 0.0	 0.0	 1	    1.04666	    0.00000	 225.0	 1	    1.08889	    1.00444;
	57	 1	 68.41	 3.00	 0.0	 0.0	 1	    1.01139	    0.00000	 225.0	 1	    1.08945	    0.93333;
	58	 2	 0.0	 0.0	 0.0	 0.0	 1	    1.00431	    0.00000	 150.0	 1	    1.10862	    0.90000;
	59	 1	 66.49	 19.70	 0.0	 0.0	 1	    1.04666	    0.00000	 225.0	 1	    1.08444	    1.00889;
	60	 1	 66.85	 41.60	 0.0	 0.0	 1	    1.04666	    0.00000	 225.0	 1	    1.08444	    1.00889;
	61	 1	 0.0	 0.0	 0.0	 0.0	 1	    1.03333	    0.00000	 225.0	 1	    1.08889	    0.97778;
	62	 1	 19.68	 4.90	 0.0	 0.0	 1	    0.98889	    0.00000	 225.0	 1	    1.08889	    0.88889;
	63	 1	 1.92	 12.70	 0.0	 0.0	 1	    1.01111	    0.00000	 225.0	 1	    1.08889	    0.93333;
	64	 1	 35.64	 12.00	 0.0	 0.0	 1	    1.04666	    0.00000	 225.0	 1	    1.08889	    1.00444;
	65	 1	 65.65	 13.60	 0.0	 0.0	 1	    1.04666	    0.00000	 225.0	 1	    1.08889	    1.00444;
	66	 1	 -21.90	 -5.10	 0.0	 0.0	 1	    1.04445	    0.00000	 225.0	 1	    1.08889	    1.00000;
	67	 1	 29.20	 -2.50	 0.0	 0.0	 1	    1.03778	    0.00000	 225.0	 1	    1.08889	    0.98667;
	68	 1	 0.0	 0.0	 0.0	 80.0	 1	    0.98889	    0.00000	 225.0	 1	    1.08889	    0.88889;
	69	 1	 0.0	 0.0	 0.0	 0.0	 1	    0.98889	    0.00000	 225.0	 1	    1.08889	    0.88889;
	70	 1	 0.0	 0.0	 0.0	 0.0	 1	    1.05921	    0.00000	 380.0	 1	    1.10526	    1.01316;
	71	 1	 91.57	 14.30	 0.0	 0.0	 1	    1.04666	    0.00000	 225.0	 1	    1.08889	    1.00444;
	72	 1	 34.80	 5.00	 0.0	 0.0	 1	    1.04666	    0.00000	 225.0	 1	    1.08889	    1.00444;
	73	 1	 0.0	 0.0	 0.0	 0.0	 1	    1.03333	    0.00000	 225.0	 1	    1.08889	    0.97778;
	74	 1	 0.0	 0.0	 0.0	 0.0	 1	    1.03333	    0.00000	 225.0	 1	    1.08889	    0.97778;
	75	 1	 218.91	 31.20	 0.0	 0.0	 1	    1.04666	    0.00000	 225.0	 1	    1.08444	    1.00889;
	76	 1	 0.0	 0.0	 0.0	 0.0	 1	    1.04444	    0.00000	 225.0	 1	    1.08444	    1.00444;
	77	 1	 0.0	 0.0	 0.0	 0.0	 1	    1.07237	    0.00000	 380.0	 1	    1.10263	    1.04211;
	78	 1	 139.34	 17.60	 0.0	 0.0	 1	    1.04444	    0.00000	 225.0	 1	    1.08444	    1.00444;
	79	 1	 -7.40	 0.90	 0.0	 0.0	 1	    1.04690	    0.00000	 225.0	 1	    1.08936	    1.00444;
	80	 1	 16.80	 12.60	 0.0	 0.0	 1	    1.04690	    0.00000	 225.0	 1	    1.08936	    1.00444;
	81	 1	 58.45	 2.90	 0.0	 0.0	 1	    0.98889	    0.00000	 225.0	 1	    1.08889	    0.88889;
	82	 1	 33.48	 3.30	 0.0	 0.0	 1	    1.01562	    0.00000	 225.0	 1	    1.08124	    0.95000;
	83	 1	 74.29	 19.70	 0.0	 0.0	 1	    0.98889	    0.00000	 225.0	 1	    1.08889	    0.88889;
	84	 1	 158.10	 -16.50	 0.0	 0.0	 1	    1.04445	    0.00000	 225.0	 1	    1.08889	    1.00000;
	85	 1	 0.0	 0.0	 0.0	 0.0	 1	    1.04445	    0.00000	 225.0	 1	    1.08889	    1.00000;
	86	 1	 484.50	 124.80	 0.0	 0.0	 1	    1.07798	    0.00000	 380.0	 1	    1.10526	    1.05070;
	87	 1	 130.34	 44.40	 0.0	 0.0	 1	    1.04445	    0.00000	 225.0	 1	    1.08889	    1.00000;
	88	 1	 168.86	 36.80	 0.0	 0.0	 1	    1.04445	    0.00000	 225.0	 1	    1.08889	    1.00000;
	89	 2	 0.0	 0.0	 0.0	 0.0	 1	    1.00000	    0.00000	 150.0	 1	    1.10000	    0.90000;
	90	 1	 67.93	 23.20	 0.0	 0.0	 1	    1.03778	    0.00000	 225.0	 1	    1.08889	    0.98667;
	91	 1	 15.00	 6.10	 0.0	 0.0	 1	    1.04666	    0.00000	 225.0	 1	    1.08444	    1.00889;
	92	 1	 0.0	 0.0	 0.0	 0.0	 1	    1.07369	    0.00000	 380.0	 1	    1.10526	    1.04211;
	93	 1	 0.0	 0.0	 0.0	 0.0	 1	    1.07369	    0.00000	 380.0	 1	    1.10526	    1.04211;
	96	 1	 15.24	 0.60	 0.0	 0.0	 1	    1.04445	    0.00000	 225.0	 1	    1.08889	    1.00000;
	97	 1	 21.96	 11.10	 0.0	 0.0	 1	    1.04666	    0.00000	 225.0	 1	    1.08889	    1.00444;
	98	 1	 108.97	 9.60	 0.0	 0.0	 1	    1.00000	    0.00000	 150.0	 1	    1.10000	    0.90000;
	99	 1	 82.10	 -2.60	 0.0	 0.0	 1	    1.04445	    0.00000	 225.0	 1	    1.08889	    1.00000;
	100	 2	 1.30	 0.00	 0.0	 0.0	 1	    1.01647	    0.00000	 225.0	 1	    1.08294	    0.95000;
	101	 1	 0.0	 0.0	 0.0	 0.0	 1	    1.01111	    0.00000	 225.0	 1	    1.08889	    0.93333;
	102	 1	 0.0	 0.0	 0.0	 0.0	 1	    1.07237	    0.00000	 380.0	 1	    1.10526	    1.03947;
	103	 1	 0.0	 0.0	 0.0	 0.0	 1	    1.07237	    0.00000	 380.0	 1	    1.10526	    1.03947;
	104	 1	 0.0	 0.0	 0.0	 0.0	 1	    1.04666	    0.00000	 225.0	 1	    1.08889	    1.00444;
	1828	 1	 104.29	 24.60	 0.0	 0.0	 1	    1.04666	    0.00000	 225.0	 1	    1.08889	    1.00444;
	105	 1	 0.0	 0.0	 0.0	 0.0	 1	    1.03778	    0.00000	 225.0	 1	    1.08889	    0.98667;
	106	 1	 15.36	 7.60	 0.0	 0.0	 1	    1.04666	    0.00000	 225.0	 1	    1.08889	    1.00444;
	107	 1	 180.14	 27.10	 0.0	 0.0	 1	    1.01111	    0.00000	 225.0	 1	    1.08889	    0.93333;
	108	 1	 0.0	 0.0	 0.0	 0.0	 1	    1.07237	    0.00000	 380.0	 1	    1.10526	    1.03947;
	109	 1	 32.10	 -1.60	 0.0	 0.0	 1	    1.04445	    0.00000	 225.0	 1	    1.08889	    1.00000;
	110	 1	 35.28	 1.20	 0.0	 0.0	 1	    1.04715	    0.00000	 225.0	 1	    1.08986	    1.00444;
	111	 1	 158.30	 2.80	 0.0	 0.0	 1	    1.04806	    0.00000	 225.0	 1	    1.09612	    1.00000;
	112	 1	 209.91	 55.60	 0.0	 0.0	 1	    1.03778	    0.00000	 225.0	 1	    1.08889	    0.98667;
	113	 1	 155.54	 33.20	 0.0	 0.0	 1	    1.04740	    0.00000	 225.0	 1	    1.09036	    1.00444;
	114	 1	 294.76	 120.60	 0.0	 0.0	 1	    1.00667	    0.00000	 225.0	 1	    1.08889	    0.92444;
	115	 1	 98.53	 14.70	 0.0	 0.0	 1	    1.04140	    0.00000	 225.0	 1	    1.09614	    0.98667;
	117	 1	 0.0	 0.0	 0.0	 0.0	 1	    1.07237	    0.00000	 380.0	 1	    1.10526	    1.03947;
	119	 1	 192.00	 -29.80	 0.0	 0.0	 1	    1.04444	    0.00000	 225.0	 1	    1.08444	    1.00444;
	120	 1	 21.60	 -16.90	 0.0	 0.0	 1	    1.04666	    0.00000	 225.0	 1	    1.08444	    1.00889;
	121	 1	 0.0	 0.0	 0.0	 0.0	 1	    1.06579	    0.00000	 380.0	 1	    1.10263	    1.02895;
	122	 1	 -0.10	 -4.20	 0.0	 0.0	 1	    1.01111	    0.00000	 225.0	 1	    1.08889	    0.93333;
	123	 1	 207.15	 37.20	 0.0	 0.0	 1	    1.01111	    0.00000	 225.0	 1	    1.08889	    0.93333;
	124	 1	 38.28	 29.80	 0.0	 0.0	 1	    1.00000	    0.00000	 63.0	 1	    1.07937	    0.92063;
	125	 2	 0.0	 0.0	 0.0	 0.0	 1	    1.01238	    0.00000	 225.0	 1	    1.07476	    0.95000;
	126	 1	 5.28	 5.30	 0.0	 0.0	 1	    1.04884	    0.00000	 225.0	 1	    1.09768	    1.00000;
	127	 1	 0.0	 0.0	 0.0	 0.0	 1	    1.07895	    0.00000	 380.0	 1	    1.10526	    1.05263;
	128	 1	 0.0	 0.0	 0.0	 0.0	 1	    1.07895	    0.00000	 380.0	 1	    1.10526	    1.05263;
	129	 1	 0.0	 0.0	 0.0	 0.0	 1	    1.07895	    0.00000	 380.0	 1	    1.10526	    1.05263;
	130	 1	 0.0	 0.0	 0.0	 0.0	 1	    1.07895	    0.00000	 380.0	 1	    1.10526	    1.05263;
	131	 1	 0.0	 0.0	 0.0	 0.0	 1	    1.04156	    0.00000	 225.0	 1	    1.09645	    0.98667;
	132	 1	 0.0	 0.0	 0.0	 0.0	 1	    1.04156	    0.00000	 225.0	 1	    1.09645	    0.98667;
	133	 1	 0.0	 0.0	 0.0	 0.0	 1	    1.07237	    0.00000	 380.0	 1	    1.10526	    1.03947;
	134	 1	 148.22	 26.50	 0.0	 0.0	 1	    1.02889	    0.00000	 225.0	 1	    1.08889	    0.96889;
	135	 1	 46.93	 10.10	 0.0	 0.0	 1	    1.04666	    0.00000	 225.0	 1	    1.08444	    1.00889;
	136	 1	 4.40	 -3.30	 0.0	 0.0	 1	    1.07237	    0.00000	 380.0	 1	    1.10526	    1.03947;
	137	 1	 200.30	 46.70	 0.0	 0.0	 1	    1.01111	    0.00000	 225.0	 1	    1.08889	    0.93333;
	138	 1	 0.0	 0.0	 0.0	 0.0	 1	    1.07237	    0.00000	 380.0	 1	    1.10526	    1.03947;
	140	 1	 242.43	 20.20	 0.0	 0.0	 1	    1.04666	    0.00000	 225.0	 1	    1.08444	    1.00889;
	142	 1	 231.30	 -18.30	 0.0	 0.0	 1	    1.04444	    0.00000	 225.0	 1	    1.08444	    1.00444;
	143	 1	 59.17	 7.80	 0.0	 0.0	 1	    1.01111	    0.00000	 225.0	 1	    1.08889	    0.93333;
	144	 1	 48.73	 10.30	 0.0	 0.0	 1	    1.01111	    0.00000	 225.0	 1	    1.08889	    0.93333;
	145	 1	 49.80	 -6.20	 0.0	 0.0	 1	    1.04698	    0.00000	 225.0	 1	    1.08952	    1.00444;
	146	 1	 0.0	 0.0	 0.0	 0.0	 1	    1.04739	    0.00000	 225.0	 1	    1.09478	    1.00000;
	147	 1	 0.0	 0.0	 0.0	 0.0	 1	    1.04739	    0.00000	 225.0	 1	    1.09478	    1.00000;
	148	 1	 82.45	 4.50	 0.0	 0.0	 1	    1.04445	    0.00000	 225.0	 1	    1.08889	    1.00000;
	149	 1	 30.00	 -1.50	 0.0	 0.0	 1	    1.04666	    0.00000	 225.0	 1	    1.08889	    1.00444;
	150	 1	 62.65	 3.90	 0.0	 0.0	 1	    1.04666	    0.00000	 225.0	 1	    1.08444	    1.00889;
	151	 1	 48.25	 6.80	 0.0	 0.0	 1	    1.04445	    0.00000	 225.0	 1	    1.08889	    1.00000;
	152	 1	 0.0	 0.0	 0.0	 0.0	 1	    1.04666	    0.00000	 225.0	 1	    1.08444	    1.00889;
	153	 1	 0.0	 0.0	 0.0	 0.0	 1	    1.04666	    0.00000	 225.0	 1	    1.08444	    1.00889;
	154	 1	 0.0	 0.0	 0.0	 0.0	 1	    1.04666	    0.00000	 225.0	 1	    1.08444	    1.00889;
	155	 1	 0.0	 0.0	 0.0	 0.0	 1	    1.06579	    0.00000	 380.0	 1	    1.10263	    1.02895;
	156	 1	 199.10	 38.20	 0.0	 0.0	 1	    0.98889	    0.00000	 225.0	 1	    1.08889	    0.88889;
	157	 1	 0.0	 0.0	 0.0	 0.0	 1	    1.04883	    0.00000	 225.0	 1	    1.09766	    1.00000;
	158	 1	 0.0	 0.0	 0.0	 0.0	 1	    1.07895	    0.00000	 380.0	 1	    1.10526	    1.05263;
	159	 1	 37.10	 -0.10	 0.0	 0.0	 1	    1.03778	    0.00000	 225.0	 1	    1.08889	    0.98667;
	160	 1	 21.48	 14.60	 0.0	 0.0	 1	    1.04445	    0.00000	 225.0	 1	    1.08889	    1.00000;
	161	 1	 0.0	 0.0	 0.0	 0.0	 1	    1.04444	    0.00000	 225.0	 1	    1.08444	    1.00444;
	162	 1	 0.0	 0.0	 0.0	 0.0	 1	    1.04444	    0.00000	 225.0	 1	    1.08444	    1.00444;
	163	 1	 0.0	 0.0	 0.0	 0.0	 1	    1.04444	    0.00000	 225.0	 1	    1.08444	    1.00444;
	164	 1	 96.90	 -7.40	 0.0	 0.0	 1	    1.04444	    0.00000	 225.0	 1	    1.08444	    1.00444;
	165	 1	 0.0	 0.0	 0.0	 0.0	 1	    1.01111	    0.00000	 225.0	 1	    1.08889	    0.93333;
	166	 1	 8.50	 -5.20	 0.0	 0.0	 1	    1.03778	    0.00000	 225.0	 1	    1.08889	    0.98667;
	167	 1	 0.0	 0.0	 0.0	 0.0	 1	    1.04470	    0.00000	 225.0	 1	    1.08941	    1.00000;
	168	 1	 0.0	 0.0	 0.0	 0.0	 1	    1.07895	    0.00000	 380.0	 1	    1.10526	    1.05263;
	169	 2	 0.0	 0.0	 0.0	 0.0	 1	    1.00000	    0.00000	 225.0	 1	    1.10000	    0.90000;
	170	 1	 15.60	 4.00	 0.0	 0.0	 1	    1.02333	    0.00000	 150.0	 1	    1.08000	    0.96667;
	171	 1	 60.49	 4.50	 0.0	 0.0	 1	    1.04666	    0.00000	 225.0	 1	    1.08889	    1.00444;
	172	 1	 0.48	 0.60	 0.0	 0.0	 1	    1.04666	    0.00000	 225.0	 1	    1.08889	    1.00444;
	173	 1	 29.10	 -7.90	 0.0	 0.0	 1	    0.98889	    0.00000	 225.0	 1	    1.08889	    0.88889;
	175	 1	 0.0	 0.0	 0.0	 0.0	 1	    1.04588	    0.00000	 225.0	 1	    1.09176	    1.00000;
	176	 1	 0.0	 0.0	 0.0	 0.0	 1	    1.04588	    0.00000	 225.0	 1	    1.09176	    1.00000;
	177	 1	 0.0	 0.0	 0.0	 0.0	 1	    1.04588	    0.00000	 225.0	 1	    1.09176	    1.00000;
	178	 1	 0.0	 0.0	 0.0	 0.0	 1	    1.04588	    0.00000	 225.0	 1	    1.09176	    1.00000;
	179	 1	 0.0	 0.0	 0.0	 0.0	 1	    1.04588	    0.00000	 225.0	 1	    1.09176	    1.00000;
	180	 2	 0.0	 0.0	 0.0	 0.0	 1	    1.00338	    0.00000	 380.0	 1	    1.10676	    0.90000;
	181	 1	 217.83	 39.90	 0.0	 0.0	 1	    1.04445	    0.00000	 225.0	 1	    1.08889	    1.00000;
	182	 1	 38.40	 21.40	 0.0	 0.0	 1	    1.03778	    0.00000	 225.0	 1	    1.08889	    0.98667;
	183	 1	 0.0	 0.0	 0.0	 0.0	 1	    1.07237	    0.00000	 380.0	 1	    1.10526	    1.03947;
	184	 1	 0.0	 0.0	 0.0	 0.0	 1	    1.07237	    0.00000	 380.0	 1	    1.10526	    1.03947;
	185	 1	 0.0	 0.0	 0.0	 0.0	 1	    1.07237	    0.00000	 380.0	 1	    1.10526	    1.03947;
	186	 1	 0.0	 0.0	 0.0	 0.0	 1	    1.07237	    0.00000	 380.0	 1	    1.10526	    1.03947;
	187	 1	 79.09	 23.30	 0.0	 0.0	 1	    1.00667	    0.00000	 225.0	 1	    1.08889	    0.92444;
	188	 1	 6.48	 1.40	 0.0	 0.0	 1	    1.03778	    0.00000	 225.0	 1	    1.08889	    0.98667;
	189	 1	 101.70	 -4.30	 0.0	 0.0	 1	    1.04444	    0.00000	 225.0	 1	    1.08444	    1.00444;
	190	 1	 -6.80	 -0.20	 0.0	 0.0	 1	    1.07237	    0.00000	 380.0	 1	    1.10263	    1.04211;
	191	 1	 -5.30	 -0.00	 0.0	 0.0	 1	    1.07237	    0.00000	 380.0	 1	    1.10263	    1.04211;
	192	 1	 0.0	 0.0	 0.0	 0.0	 1	    1.04666	    0.00000	 225.0	 1	    1.08889	    1.00444;
	193	 1	 0.0	 0.0	 0.0	 0.0	 1	    1.03333	    0.00000	 225.0	 1	    1.08889	    0.97778;
	194	 1	 0.0	 0.0	 0.0	 0.0	 1	    1.03333	    0.00000	 225.0	 1	    1.08889	    0.97778;
	195	 1	 162.62	 19.20	 0.0	 0.0	 1	    1.02889	    0.00000	 225.0	 1	    1.08889	    0.96889;
	196	 1	 0.0	 0.0	 0.0	 0.0	 1	    1.01111	    0.00000	 225.0	 1	    1.08889	    0.93333;
	197	 1	 0.0	 0.0	 0.0	 0.0	 1	    1.01111	    0.00000	 225.0	 1	    1.08889	    0.93333;
	198	 1	 118.69	 26.50	 0.0	 0.0	 1	    1.04444	    0.00000	 225.0	 1	    1.08444	    1.00444;
	199	 1	 299.20	 -25.20	 0.0	 0.0	 1	    1.04444	    0.00000	 225.0	 1	    1.08444	    1.00444;
	200	 1	 0.0	 0.0	 0.0	 0.0	 1	    1.03333	    0.00000	 225.0	 1	    1.08889	    0.97778;
	201	 1	 0.0	 0.0	 0.0	 0.0	 1	    1.04444	    0.00000	 225.0	 1	    1.08444	    1.00444;
	202	 1	 253.47	 31.00	 0.0	 0.0	 1	    1.02000	    0.00000	 225.0	 1	    1.08889	    0.95111;
	203	 1	 107.65	 19.50	 0.0	 0.0	 1	    1.04666	    0.00000	 225.0	 1	    1.08889	    1.00444;
	204	 1	 110.65	 26.00	 0.0	 0.0	 1	    1.03778	    0.00000	 225.0	 1	    1.08889	    0.98667;
	205	 1	 35.52	 2.70	 0.0	 0.0	 1	    1.04666	    0.00000	 225.0	 1	    1.08444	    1.00889;
	206	 1	 0.0	 0.0	 0.0	 0.0	 1	    1.06579	    0.00000	 380.0	 1	    1.10263	    1.02895;
...
];

%% generator data
%	bus	Pg	Qg	Qmax	Qmin	Vg	mBase	status	Pmax	Pmin
mpc.gen = [
	1268	 150.0	 0.0	 139.0	 -139.0	 1.01773	 100.0	 1	 278	 22.0; % NG
	1268	 157.0	 0.0	 146.0	 -146.0	 1.01773	 100.0	 1	 292	 22.0; % NG
	1356	 128.1	 0.0	 153.6	 -153.6	 1.01408	 100.0	 1	 254	 2.2; % PEL
	89	 52.25	 0.0	 70.8	 -70.8	 1.0	 100.0	 1	 102	 2.5; % PEL
	1837	 56.3	 0.0	 86.4	 -86.4	 1.0	 100.0	 1	 110	 2.6; % NG
	1837	 35.3	 0.0	 86.4	 -86.4	 1.0	 100.0	 1	 68	 2.6; % PEL
	125	 54.17	 0.0	 53.0	 -53.0	 1.01238	 100.0	 1	 106	 2.34; % PEL
	908	 38.5	 0.0	 248.4	 -248.4	 1.00439	 100.0	 1	 75	 2.0; % PEL
	817	 27.6	 0.0	 645.6	 -645.6	 1.00423	 100.0	 1	 54	 1.2; % PEL
	817	 38.2	 0.0	 645.6	 -645.6	 1.00423	 100.0	 1	 75	 1.4; % PEL
	817	 87.6	 0.0	 645.6	 -645.6	 1.00423	 100.0	 1	 174	 1.2; % NG
	1335	 37.0	 0.0	 78.0	 -78.0	 1.0	 100.0	 1	 71	 3.0; % NG
	396	 0.0	 0.0	 12.0	 -12.0	 1.0	 100.0	 0	 24	 1.1; % NG
	396	 0.0	 0.0	 9.0	 -9.0	 1.0	 100.0	 0	 17	 1.1; % NG
	975	 66.75	 0.0	 112.8	 -112.8	 1.0	 100.0	 1	 130	 3.5; % NG
	858	 219.27	 0.0	 238.8	 -238.8	 1.01931	 100.0	 1	 433	 5.54; % NG
	921	 75.1	 0.0	 73.0	 -73.0	 1.0	 100.0	 1	 146	 4.2; % NG
	921	 42.6	 0.0	 41.0	 -41.0	 1.0	 100.0	 1	 81	 4.2; % PEL
	1255	 155.35	 0.0	 151.0	 -151.0	 1.01587	 100.0	 1	 302	 8.7; % NG
	169	 185.415	 0.0	 185.0	 -185.0	 1.0	 100.0	 1	 370	 0.83; % NG
	448	 682.5	 0.0	 683.0	 -683.0	 1.01761	 100.0	 1	 1365	 0.0; % PEL
	241	 0.0	 0.0	 27.0	 -27.0	 1.0	 100.0	 0	 54	 1.3; % NG
	241	 0.0	 0.0	 32.0	 -32.0	 1.0	 100.0	 0	 64	 1.3; % NG
	241	 0.0	 0.0	 386.0	 -386.0	 1.0	 100.0	 0	 771	 1.3; % COW
	241	 0.0	 0.0	 50.0	 -50.0	 1.0	 100.0	 0	 99	 1.3; % NG
	270	 169.5	 0.0	 167.0	 -167.0	 1.00923	 100.0	 1	 334	 5.0; % NG
	885	 113.9	 0.0	 130.8	 -130.8	 1.01893	 100.0	 1	 227	 0.8; % PEL
	885	 106.9	 0.0	 130.8	 -130.8	 1.01893	 100.0	 1	 213	 0.8; % NG
	876	 144.2	 0.0	 142.0	 -142.0	 1.01811	 100.0	 1	 283	 5.4; % NG
	180	 260.95	 0.0	 249.0	 -249.0	 1.00338	 100.0	 1	 498	 23.9; % NG
	46	 126.0	 0.0	 2692.8	 -2692.8	 1.00422	 100.0	 1	 249	 3.0; % COW
	803	 89.69	 0.0	 89.0	 -89.0	 1.01288	 100.0	 1	 178	 1.38; % NG
	356	 194.07	 0.0	 193.2	 -193.2	 1.01705	 100.0	 1	 384	 4.14; % NG
	100	 560.5	 0.0	 554.0	 -554.0	 1.01647	 100.0	 1	 1108	 13.0; % NG
	707	 0.0	 0.0	 153.0	 -153.0	 1.0	 100.0	 0	 306	 2.1; % NG
	973	 -4.0	 0.0	 6.0	 -6.0	 1.01855	 100.0	 1	 0	 -8.0; % SYNC
	973	 65.65	 0.0	 63.0	 -63.0	 1.01855	 100.0	 1	 126	 5.3; % NG
	1118	 439.75	 0.0	 437.0	 -437.0	 1.01384	 100.0	 1	 874	 5.5; % NG
	897	 50.85	 0.0	 50.0	 -50.0	 1.0	 100.0	 1	 99	 2.7; % NG
	897	 40.35	 0.0	 39.0	 -39.0	 1.0	 100.0	 1	 78	 2.7; % PEL
	58	 26.3	 0.0	 1993.2	 -1993.2	 1.00431	 100.0	 1	 52	 0.6; % NG
	82	 325.765	 0.0	 325.0	 -325.0	 1.01562	 100.0	 1	 649	 2.53; % NG
	474	 129.1	 0.0	 127.0	 -127.0	 1.01533	 100.0	 1	 253	 5.2; % NG
	1221	 62.4	 0.0	 90.0	 -90.0	 1.0	 100.0	 1	 119	 5.8; % NG
	355	 0.0	 0.0	 95.0	 -95.0	 1.0	 100.0	 0	 190	 6.2; % NG
	471	 157.9	 0.0	 154.0	 -154.0	 1.0171	 100.0	 1	 308	 7.8; % COW
	1321	 46.05	 0.0	 3409.2	 -3409.2	 1.00423	 100.0	 1	 91	 1.1; % NG
	1321	 0.01	 -0.0	 0.1	 -0.1	 1.00423	 100.0	 0	 0	 0.0; % PEL
	1829	 251.675	 0.0	 251.0	 -251.0	 1.01429	 100.0	 1	 501	 2.35; % NG
	1005	 59.45	 0.0	 58.0	 -58.0	 1.00521	 100.0	 1	 115	 3.9; % NG
	14	 217.38	 0.0	 216.0	 -216.0	 1.01626	 100.0	 1	 432	 2.76; % NG
	14	 222.7	 0.0	 222.0	 -222.0	 1.01626	 100.0	 1	 443	 2.4; % PEL
	1628	 402.5	 0.0	 353.0	 -353.0	 1.0	 100.0	 1	 705	 100.0; % COW
	1629	 600.0	 0.0	 565.0	 -565.0	 1.0	 100.0	 1	 1130	 70.0; % NUC
	1842	 26.15	 0.0	 25.0	 -25.0	 1.0	 100.0	 1	 50	 2.3; % NG
	1843	 36.65	 0.0	 36.0	 -36.0	 1.0	 100.0	 1	 71	 2.3; % PEL
	1844	 52.35	 0.0	 51.0	 -51.0	 1.00776	 100.0	 1	 102	 2.7; % COW
	1630	 104.8	 0.0	 101.0	 -101.0	 0.98876	 100.0	 1	 201	 8.6; % NG
	1631	 113.95	 0.0	 112.0	 -112.0	 0.98996	 100.0	 1	 223	 4.9; % NG
	1845	 125.2	 0.0	 119.0	 -119.0	 1.0	 100.0	 1	 238	 12.4; % NG
	1846	 50.1	 0.0	 49.0	 -49.0	 1.0	 100.0	 1	 97	 3.2; % NG
	1632	 31.1	 0.0	 30.0	 -30.0	 1.0	 100.0	 1	 59	 3.2; % NG
	1847	 62.1	 0.0	 61.0	 -61.0	 1.0	 100.0	 1	 121	 3.2; % COW
	1848	 26.1	 0.0	 25.0	 -25.0	 1.0	 100.0	 1	 49	 3.2; % NG
	1849	 104.6	 0.0	 100.0	 -100.0	 1.0	 100.0	 1	 200	 9.2; % NG
	1850	 70.1	 0.0	 66.0	 -66.0	 1.0	 100.0	 1	 131	 9.2; % NG
	1851	 87.6	 0.0	 83.0	 -83.0	 1.0	 100.0	 1	 166	 9.2; % NG
	1852	 180.1	 0.0	 176.0	 -176.0	 1.0	 100.0	 1	 351	 9.2; % NG
	1853	 78.6	 0.0	 74.0	 -74.0	 1.0	 100.0	 1	 148	 9.2; % NG
	1854	 167.6	 0.0	 163.0	 -163.0	 1.0	 100.0	 1	 326	 9.2; % COW
	1633	 967.2675	 0.0	 904.0	 -904.0	 1.00135	 100.0	 1	 1807	 127.535; % COW
	1634	 663.5125	 0.0	 592.0	 -592.0	 1.00053	 100.0	 1	 1183	 144.025; % NG
	1635	 747.52	 0.0	 684.0	 -684.0	 1.00053	 100.0	 1	 1367	 128.04; % NUC
	1636	 584.7675	 0.0	 522.0	 -522.0	 1.0	 100.0	 1	 1043	 126.535; % COW
	1637	 178.5	 6.515	 153.03	 -140.0	 1.0	 100.0	 1	 279	 78.0; % NG
	1638	 170.0	 10.22	 152.44	 -132.0	 1.0	 100.0	 1	 263	 77.0; % NG
	1639	 160.5	 0.0	 122.0	 -122.0	 1.0	 100.0	 1	 244	 77.0; % COW
	1640	 182.0	 34.45	 228.81	 -159.91	 1.0	 100.0	 1	 303	 61.0; % NG
	1641	 182.75	 0.0	 161.0	 -161.0	 1.00373	 100.0	 1	 321	 44.5; % NG
	1642	 47.4	 0.0	 45.0	 -45.0	 1.0	 100.0	 1	 89	 5.8; % NG
	1643	 41.4	 0.0	 39.0	 -39.0	 1.0	 100.0	 1	 77	 5.8; % PEL
	1855	 69.4	 0.0	 67.0	 -67.0	 1.0	 100.0	 1	 133	 5.8; % NG
	1644	 79.4	 0.0	 77.0	 -77.0	 1.0	 100.0	 1	 153	 5.8; % NG
	1645	 73.4	 0.0	 71.0	 -71.0	 1.0	 100.0	 1	 141	 5.8; % PEL
	1646	 262.25	 0.0	 229.0	 -229.0	 1.00036	 100.0	 1	 458	 66.5; % NG
	1647	 50.7475	 0.835	 50.67	 -49.0	 1.0	 100.0	 1	 97	 4.495; % PEL
	1856	 168.95	 0.0	 162.0	 -162.0	 1.0	 100.0	 1	 324	 13.9; % NG
	1857	 99.95	 0.0	 98.0	 -98.0	 0.99706	 100.0	 1	 195	 4.9; % COW
	1858	 45.45	 5.44	 55.44	 -44.56	 0.99182	 100.0	 1	 86	 4.9; % NG
	1859	 54.95	 0.0	 53.0	 -53.0	 1.0	 100.0	 1	 105	 4.9; % NG
	2070	 75.95	 0.0	 74.0	 -74.0	 1.0	 100.0	 1	 147	 4.9; % NG
	1860	 47.6	 0.0	 46.0	 -46.0	 1.0	 100.0	 1	 92	 3.2; % NG
	1861	 28.6	 0.0	 27.0	 -27.0	 1.0	 100.0	 1	 54	 3.2; % PEL
	1648	 592.0725	 2.495	 530.99	 -526.0	 0.99083	 100.0	 1	 1051	 133.145; % COW
	1649	 544.205	 28.845	 533.69	 -476.0	 0.98954	 100.0	 1	 952	 136.41; % COW
	1650	 566.57	 19.84	 537.68	 -498.0	 0.98754	 100.0	 1	 996	 137.14; % COW
	1651	 1090.2	 0.0	 1022.0	 -1022.0	 0.9946	 100.0	 1	 2044	 136.4; % COW
	1652	 910.0	 0.0	 831.0	 -831.0	 0.99759	 100.0	 1	 1661	 159.0; % COW
	1862	 825.5	 0.0	 746.0	 -746.0	 0.99881	 100.0	 1	 1492	 159.0; % COW
	1653	 135.25	 0.0	 134.0	 -134.0	 1.0	 100.0	 1	 267	 3.5; % NG
	1654	 55.25	 0.0	 54.0	 -54.0	 1.0	 100.0	 1	 107	 3.5; % NG
	1655	 59.25	 0.0	 58.0	 -58.0	 1.0	 100.0	 1	 115	 3.5; % COW
	1656	 51.75	 0.0	 50.0	 -50.0	 1.0	 100.0	 1	 100	 3.5; % NG
	1657	 85.25	 0.0	 84.0	 -84.0	 1.0	 100.0	 1	 167	 3.5; % PEL
	1658	 44.75	 0.0	 43.0	 -43.0	 1.0	 100.0	 1	 86	 3.5; % NG
	1863	 72.3475	 0.0	 71.0	 -71.0	 1.0	 100.0	 1	 141	 3.695; % PEL
	1659	 42.8475	 0.0	 41.0	 -41.0	 1.0	 100.0	 1	 82	 3.695; % NG
	1660	 19.3475	 0.225	 18.45	 -18.0	 1.0	 100.0	 1	 35	 3.695; % PEL
	1661	 79.8475	 0.0	 78.0	 -78.0	 1.0	 100.0	 1	 156	 3.695; % NG
	1662	 75.8475	 0.0	 74.0	 -74.0	 1.0	 100.0	 1	 148	 3.695; % PEL
	1663	 23.8475	 0.0	 22.0	 -22.0	 1.0	 100.0	 1	 44	 3.695; % NG
	1864	 35.0	 0.0	 34.0	 -34.0	 1.0	 100.0	 1	 68	 2.0; % COW
	1865	 41.5	 0.0	 41.0	 -41.0	 1.0	 100.0	 1	 81	 2.0; % PEL
	1866	 27.55	 0.0	 26.0	 -26.0	 1.0	 100.0	 1	 52	 3.1; % NG
	1664	 27.55	 0.0	 26.0	 -26.0	 1.0	 100.0	 1	 52	 3.1; % NG
	1665	 76.05	 0.0	 75.0	 -75.0	 1.0	 100.0	 1	 149	 3.1; % PEL
	1867	 41.05	 0.0	 40.0	 -40.0	 1.0	 100.0	 1	 79	 3.1; % NG
	1666	 48.55	 0.0	 47.0	 -47.0	 1.0	 100.0	 1	 94	 3.1; % PEL
	1868	 33.55	 0.0	 32.0	 -32.0	 1.0	 100.0	 1	 64	 3.1; % PEL
	1667	 427.75	 156.03	 656.06	 -344.0	 0.99649	 100.0	 1	 687	 168.5; % COW
	1869	 481.75	 75.255	 515.51	 -365.0	 1.0	 100.0	 1	 730	 233.5; % COW
	1668	 392.25	 177.96	 656.92	 -301.0	 0.99502	 100.0	 1	 601	 183.5; % COW
	1669	 393.75	 173.015	 648.03	 -302.0	 0.99328	 100.0	 1	 604	 183.5; % COW
	1870	 88.0	 0.0	 84.0	 -84.0	 0.99947	 100.0	 1	 167	 9.0; % NG
	1871	 0.0	 0.0	 59.33	 -50.0	 1.00442	 100.0	 0	 99	 9.5; % NG
	1872	 0.0	 0.0	 59.61	 -47.0	 1.0	 100.0	 0	 93	 10.2; % NG
	1670	 358.35	 0.0	 358.0	 -358.0	 1.00942	 100.0	 1	 716	 0.7; % PEL
	1873	 194.5	 0.0	 187.2	 -187.2	 1.0	 100.0	 1	 365	 24.0; % COW
	1874	 169.5	 0.0	 187.2	 -187.2	 1.0	 100.0	 1	 315	 24.0; % NG
	1671	 819.18	 0.0	 761.0	 -761.0	 1.0	 100.0	 1	 1522	 116.36; % COW
	1673	 638.935	 0.0	 578.0	 -578.0	 1.0	 100.0	 1	 1156	 121.87; % NUC
	1674	 669.685	 0.0	 609.0	 -609.0	 0.99957	 100.0	 1	 1218	 121.37; % COW
	1675	 1104.25	 0.0	 1004.0	 -1004.0	 0.99963	 100.0	 1	 2007	 201.5; % COW
	1676	 673.25	 57.085	 687.17	 -573.0	 1.00522	 100.0	 1	 1145	 201.5; % NUC
	1875	 1148.5	 0.0	 1049.0	 -1049.0	 1.0	 100.0	 1	 2098	 199.0; % COW
	1677	 1002.5	 0.0	 903.0	 -903.0	 1.0	 100.0	 1	 1806	 199.0; % COW
	1877	 76.25	 0.0	 73.0	 -73.0	 1.0	 100.0	 1	 145	 7.5; % PEL
	1878	 66.75	 0.0	 63.0	 -63.0	 1.0	 100.0	 1	 126	 7.5; % NG
	1678	 94.625	 5.56	 104.12	 -93.0	 1.0	 100.0	 1	 185	 4.25; % NG
	1679	 41.125	 21.18	 103.94	 -61.58	 1.0	 100.0	 1	 78	 4.25; % NG
	1680	 384.05	 0.0	 383.0	 -383.0	 1.0	 100.0	 1	 766	 2.1; % NG
	1681	 482.5	 0.0	 438.0	 -438.0	 1.0	 100.0	 1	 875	 90.0; % COW
	1682	 458.0	 0.0	 381.0	 -381.0	 0.98022	 100.0	 1	 761	 155.0; % NG
	1683	 430.0	 0.0	 353.0	 -353.0	 0.98002	 100.0	 1	 705	 155.0; % COW
	1684	 915.75	 0.0	 865.0	 -865.0	 1.0	 100.0	 1	 1729	 102.5; % COW
	1880	 68.4	 0.0	 67.0	 -67.0	 1.0	 100.0	 1	 133	 3.8; % COW
	2045	 0.0	 0.0	 26.0	 -26.0	 1.0	 100.0	 0	 52	 3.1; % NG
	2081	 0.0	 0.0	 19.0	 -19.0	 1.0	 100.0	 0	 37	 3.1; % NG
	1881	 79.5	 0.0	 77.0	 -77.0	 1.0	 100.0	 1	 154	 5.0; % NG
	1882	 89.5	 0.0	 87.0	 -87.0	 1.0	 100.0	 1	 174	 5.0; % NG
	1685	 28.5	 0.0	 26.0	 -26.0	 1.0	 100.0	 1	 52	 5.0; % NG
	1883	 104.5	 0.0	 102.0	 -102.0	 1.0	 100.0	 1	 204	 5.0; % NG
	1884	 114.5	 0.0	 112.0	 -112.0	 1.0	 100.0	 1	 224	 5.0; % NG
	1885	 59.0	 0.0	 57.0	 -57.0	 1.0	 100.0	 1	 113	 5.0; % NG
	1686	 568.5	 16.955	 532.91	 -499.0	 1.0	 100.0	 1	 997	 140.0; % COW
	1687	 547.5	 28.725	 535.45	 -478.0	 1.0	 100.0	 1	 955	 140.0; % COW
	1688	 544.0	 46.855	 567.71	 -474.0	 1.0	 100.0	 1	 948	 140.0; % COW
	1689	 843.0	 0.0	 773.0	 -773.0	 1.0	 100.0	 1	 1546	 140.0; % COW
	1886	 104.35	 0.0	 102.0	 -102.0	 1.0	 100.0	 1	 203	 5.7; % NG
	1887	 26.35	 0.0	 24.0	 -24.0	 1.0	 100.0	 1	 47	 5.7; % PEL
	1888	 44.85	 0.0	 42.0	 -42.0	 1.0	 100.0	 1	 84	 5.7; % PEL
	1690	 229.75	 24.885	 219.77	 -170.0	 0.98588	 100.0	 1	 340	 119.5; % COW
	1691	 37.25	 9.625	 51.25	 -32.0	 1.0	 100.0	 1	 64	 10.5; % NG
	1692	 236.2	 37.96	 258.1	 -182.18	 1.01132	 100.0	 1	 348	 124.4; % NG
	1693	 204.9525	 0.0	 185.0	 -185.0	 1.0	 100.0	 1	 369	 40.905; % NG
	1694	 185.57	 0.0	 165.0	 -165.0	 1.0	 100.0	 1	 330	 41.14; % NG
	1695	 295.9775	 0.0	 283.0	 -283.0	 1.0	 100.0	 1	 565	 26.955; % COW
	1696	 226.9925	 0.0	 216.0	 -216.0	 1.0	 100.0	 1	 432	 21.985; % NG
	1697	 633.9225	 0.0	 577.0	 -577.0	 1.0	 100.0	 1	 1153	 114.845; % COW
	1698	 615.4225	 0.0	 558.0	 -558.0	 1.0	 100.0	 1	 1116	 114.845; % COW
	1699	 590.1725	 0.0	 531.0	 -531.0	 1.0	 100.0	 1	 1062	 118.345; % COW
	1700	 570.9225	 11.145	 530.29	 -508.0	 1.0	 100.0	 1	 1016	 125.845; % NUC
	1701	 54.1	 0.0	 53.0	 -53.0	 1.0	 100.0	 1	 105	 3.2; % NG
	1702	 37.995	 0.0	 36.0	 -36.0	 1.0	 100.0	 1	 72	 3.99; % NG
	1703	 27.495	 0.0	 30.0	 -30.0	 1.0	 100.0	 1	 51	 3.99; % PEL
	1889	 73.495	 0.0	 72.0	 -72.0	 1.0	 100.0	 1	 143	 3.99; % NG
	1704	 826.0	 0.0	 741.0	 -741.0	 1.0	 100.0	 1	 1482	 170.0; % COW
	1705	 879.0	 0.0	 794.0	 -794.0	 1.0	 100.0	 1	 1588	 170.0; % COW
	1890	 24.2	 0.0	 23.0	 -23.0	 1.0	 100.0	 1	 46	 2.4; % PEL
	1891	 30.7	 0.0	 30.0	 -30.0	 1.0	 100.0	 1	 59	 2.4; % NG
	1892	 14.7	 0.0	 15.6	 -15.6	 1.0	 100.0	 1	 27	 2.4; % PEL
	1706	 29.7	 0.0	 29.0	 -29.0	 1.0	 100.0	 1	 57	 2.4; % PEL
	1893	 101.75	 0.0	 99.0	 -99.0	 1.0	 100.0	 1	 197	 6.5; % NG
	1894	 93.5	 0.0	 90.0	 -90.0	 1.0	 100.0	 1	 180	 7.0; % PEL
	1895	 82.85	 0.0	 81.6	 -81.6	 1.0	 100.0	 1	 159	 6.7; % NG
	1896	 155.85	 0.0	 153.0	 -153.0	 1.0	 100.0	 1	 305	 6.7; % COW
	1897	 140.5	 0.0	 137.0	 -137.0	 1.0	 100.0	 1	 274	 7.0; % NG
	1707	 39.7	 0.0	 39.0	 -39.0	 1.0	 100.0	 1	 77	 2.4; % NG
	1898	 41.2	 0.0	 40.0	 -40.0	 1.0	 100.0	 1	 80	 2.4; % PEL
	1899	 38.7	 0.0	 38.0	 -38.0	 1.0	 100.0	 1	 75	 2.4; % PEL
	1708	 40.2	 0.0	 39.0	 -39.0	 1.0	 100.0	 1	 78	 2.4; % COW
	1709	 30.2	 0.0	 29.0	 -29.0	 1.0	 100.0	 1	 58	 2.4; % PEL
	1710	 44.45	 0.0	 43.0	 -43.0	 1.0	 100.0	 1	 86	 2.9; % NG
	1711	 46.95	 0.0	 46.0	 -46.0	 1.0	 100.0	 1	 91	 2.9; % NG
	1712	 822.5	 0.0	 751.0	 -751.0	 1.0	 100.0	 1	 1501	 144.0; % COW
	1713	 1075.0	 0.0	 1003.0	 -1003.0	 1.00198	 100.0	 1	 2006	 144.0; % COW
	1900	 0.0	 0.0	 18.0	 -18.0	 1.0	 100.0	 0	 36	 2.2; % PEL
	2017	 0.0	 0.0	 16.0	 -16.0	 1.0	 100.0	 0	 31	 2.2; % PEL
	1714	 280.815	 0.0	 259.0	 -259.0	 1.01466	 100.0	 1	 517	 44.63; % COW
	1901	 83.8	 0.0	 82.0	 -82.0	 1.0	 100.0	 1	 164	 3.6; % NG
...
];

%% generator cost data
%	2	startup	shutdown	n	c(n-1)	...	c0
mpc.gencost = [
	2	 0.0	 0.0	 3	   0.000000	  34.053198	   0.000000; % NG
	2	 0.0	 0.0	 3	   0.000000	  27.100144	   0.000000; % NG
	2	 0.0	 0.0	 3	   0.000000	 107.986054	   0.000000; % PEL
	2	 0.0	 0.0	 3	   0.000000	  54.120946	   0.000000; % PEL
	2	 0.0	 0.0	 3	   0.000000	   2.931374	   0.000000; % NG
	2	 0.0	 0.0	 3	   0.000000	  40.036887	   0.000000; % PEL
	2	 0.0	 0.0	 3	   0.000000	 122.524132	   0.000000; % PEL
	2	 0.0	 0.0	 3	   0.000000	 113.461611	   0.000000; % PEL
	2	 0.0	 0.0	 3	   0.000000	 101.828811	   0.000000; % PEL
	2	 0.0	 0.0	 3	   0.000000	  48.968308	   0.000000; % PEL
	2	 0.0	 0.0	 3	   0.000000	 119.329141	   0.000000; % NG
	2	 0.0	 0.0	 3	   0.000000	  28.509213	   0.000000; % NG
	2	 0.0	 0.0	 3	   0.000000	  38.618371	   0.000000; % NG
	2	 0.0	 0.0	 3	   0.000000	  22.781373	   0.000000; % NG
	2	 0.0	 0.0	 3	   0.000000	  96.342645	   0.000000; % NG
	2	 0.0	 0.0	 3	   0.000000	  41.859705	   0.000000; % NG
	2	 0.0	 0.0	 3	   0.000000	  41.498978	   0.000000; % NG
	2	 0.0	 0.0	 3	   0.000000	  34.218254	   0.000000; % PEL
	2	 0.0	 0.0	 3	   0.000000	  32.169640	   0.000000; % NG
	2	 0.0	 0.0	 3	   0.000000	 104.226032	   0.000000; % NG
	2	 0.0	 0.0	 3	   0.000000	  28.074072	   0.000000; % PEL
	2	 0.0	 0.0	 3	   0.000000	 104.597709	   0.000000; % NG
	2	 0.0	 0.0	 3	   0.000000	 106.384472	   0.000000; % NG
	2	 0.0	 0.0	 3	   0.000000	  20.791564	   0.000000; % COW
	2	 0.0	 0.0	 3	   0.000000	  25.695208	   0.000000; % NG
	2	 0.0	 0.0	 3	   0.000000	  37.644673	   0.000000; % NG
	2	 0.0	 0.0	 3	   0.000000	  19.054200	   0.000000; % PEL
	2	 0.0	 0.0	 3	   0.000000	 107.769028	   0.000000; % NG
	2	 0.0	 0.0	 3	   0.000000	  43.736707	   0.000000; % NG
	2	 0.0	 0.0	 3	   0.000000	  38.983247	   0.000000; % NG
	2	 0.0	 0.0	 3	   0.000000	  29.923701	   0.000000; % COW
	2	 0.0	 0.0	 3	   0.000000	 107.498076	   0.000000; % NG
	2	 0.0	 0.0	 3	   0.000000	 118.435397	   0.000000; % NG
	2	 0.0	 0.0	 3	   0.000000	  38.474122	   0.000000; % NG
	2	 0.0	 0.0	 3	   0.000000	 108.183844	   0.000000; % NG
	2	 0.0	 0.0	 3	   0.000000	   0.000000	   0.000000; % SYNC
	2	 0.0	 0.0	 3	   0.000000	 114.563931	   0.000000; % NG
	2	 0.0	 0.0	 3	   0.000000	  45.140076	   0.000000; % NG
	2	 0.0	 0.0	 3	   0.000000	 113.523586	   0.000000; % NG
	2	 0.0	 0.0	 3	   0.000000	  40.666919	   0.000000; % PEL
	2	 0.0	 0.0	 3	   0.000000	  53.621531	   0.000000; % NG
	2	 0.0	 0.0	 3	   0.000000	  29.658147	   0.000000; % NG
	2	 0.0	 0.0	 3	   0.000000	  26.946649	   0.000000; % NG
	2	 0.0	 0.0	 3	   0.000000	 102.486355	   0.000000; % NG
	2	 0.0	 0.0	 3	   0.000000	  29.516190	   0.000000; % NG
	2	 0.0	 0.0	 3	   0.000000	 105.885449	   0.000000; % COW
	2	 0.0	 0.0	 3	   0.000000	  31.512377	   0.000000; % NG
	2	 0.0	 0.0	 3	   0.000000	 100.216393	   0.000000; % PEL
	2	 0.0	 0.0	 3	   0.000000	  41.554458	   0.000000; % NG
	2	 0.0	 0.0	 3	   0.000000	  33.863712	   0.000000; % NG
	2	 0.0	 0.0	 3	   0.000000	  46.608056	   0.000000; % NG
	2	 0.0	 0.0	 3	   0.000000	  38.456913	   0.000000; % PEL
	2	 0.0	 0.0	 3	   0.000000	  26.051058	   0.000000; % COW
	2	 0.0	 0.0	 3	   0.000000	 114.826646	   0.000000; % NUC
	2	 0.0	 0.0	 3	   0.000000	  39.101961	   0.000000; % NG
	2	 0.0	 0.0	 3	   0.000000	 117.337694	   0.000000; % PEL
	2	 0.0	 0.0	 3	   0.000000	  24.275715	   0.000000; % COW
	2	 0.0	 0.0	 3	   0.000000	  40.567720	   0.000000; % NG
	2	 0.0	 0.0	 3	   0.000000	  19.181730	   0.000000; % NG
	2	 0.0	 0.0	 3	   0.000000	  25.310926	   0.000000; % NG
	2	 0.0	 0.0	 3	   0.000000	 113.331255	   0.000000; % NG
	2	 0.0	 0.0	 3	   0.000000	 113.555785	   0.000000; % NG
	2	 0.0	 0.0	 3	   0.000000	  14.543877	   0.000000; % COW
	2	 0.0	 0.0	 3	   0.000000	  22.500032	   0.000000; % NG
	2	 0.0	 0.0	 3	   0.000000	  42.534977	   0.000000; % NG
	2	 0.0	 0.0	 3	   0.000000	  30.900147	   0.000000; % NG
	2	 0.0	 0.0	 3	   0.000000	  32.533161	   0.000000; % NG
	2	 0.0	 0.0	 3	   0.000000	  20.797422	   0.000000; % NG
	2	 0.0	 0.0	 3	   0.000000	  49.031321	   0.000000; % NG
	2	 0.0	 0.0	 3	   0.000000	  45.931566	   0.000000; % COW
	2	 0.0	 0.0	 3	   0.000000	   7.247199	   0.000000; % COW
	2	 0.0	 0.0	 3	   0.000000	  36.087984	   0.000000; % NG
	2	 0.0	 0.0	 3	   0.000000	  29.932035	   0.000000; % NUC
	2	 0.0	 0.0	 3	   0.000000	  29.324901	   0.000000; % COW
	2	 0.0	 0.0	 3	   0.000000	  31.268236	   0.000000; % NG
	2	 0.0	 0.0	 3	   0.000000	  38.769206	   0.000000; % NG
	2	 0.0	 0.0	 3	   0.000000	  37.547177	   0.000000; % COW
	2	 0.0	 0.0	 3	   0.000000	  53.524770	   0.000000; % NG
	2	 0.0	 0.0	 3	   0.000000	  28.154423	   0.000000; % NG
	2	 0.0	 0.0	 3	   0.000000	 116.082855	   0.000000; % NG
	2	 0.0	 0.0	 3	   0.000000	  45.002853	   0.000000; % PEL
	2	 0.0	 0.0	 3	   0.000000	 112.259854	   0.000000; % NG
	2	 0.0	 0.0	 3	   0.000000	  32.308012	   0.000000; % NG
	2	 0.0	 0.0	 3	   0.000000	  34.881543	   0.000000; % PEL
	2	 0.0	 0.0	 3	   0.000000	  15.472963	   0.000000; % NG
	2	 0.0	 0.0	 3	   0.000000	  33.455009	   0.000000; % PEL
	2	 0.0	 0.0	 3	   0.000000	  27.942746	   0.000000; % NG
	2	 0.0	 0.0	 3	   0.000000	  48.515601	   0.000000; % COW
	2	 0.0	 0.0	 3	   0.000000	  36.619653	   0.000000; % NG
	2	 0.0	 0.0	 3	   0.000000	  48.018806	   0.000000; % NG
	2	 0.0	 0.0	 3	   0.000000	  10.056400	   0.000000; % NG
	2	 0.0	 0.0	 3	   0.000000	 104.536946	   0.000000; % NG
	2	 0.0	 0.0	 3	   0.000000	  36.734785	   0.000000; % PEL
	2	 0.0	 0.0	 3	   0.000000	   7.009011	   0.000000; % COW
	2	 0.0	 0.0	 3	   0.000000	  22.429933	   0.000000; % COW
	2	 0.0	 0.0	 3	   0.000000	  18.950813	   0.000000; % COW
	2	 0.0	 0.0	 3	   0.000000	  21.782242	   0.000000; % COW
	2	 0.0	 0.0	 3	   0.000000	  24.616626	   0.000000; % COW
	2	 0.0	 0.0	 3	   0.000000	  12.675851	   0.000000; % COW
	2	 0.0	 0.0	 3	   0.000000	 113.083701	   0.000000; % NG
	2	 0.0	 0.0	 3	   0.000000	  18.045214	   0.000000; % NG
	2	 0.0	 0.0	 3	   0.000000	  85.503188	   0.000000; % COW
	2	 0.0	 0.0	 3	   0.000000	 124.808600	   0.000000; % NG
	2	 0.0	 0.0	 3	   0.000000	  64.862844	   0.000000; % PEL
	2	 0.0	 0.0	 3	   0.000000	  48.466773	   0.000000; % NG
	2	 0.0	 0.0	 3	   0.000000	 100.165449	   0.000000; % PEL
	2	 0.0	 0.0	 3	   0.000000	  57.914820	   0.000000; % NG
	2	 0.0	 0.0	 3	   0.000000	  27.752107	   0.000000; % PEL
	2	 0.0	 0.0	 3	   0.000000	  45.630692	   0.000000; % NG
	2	 0.0	 0.0	 3	   0.000000	  50.523739	   0.000000; % PEL
	2	 0.0	 0.0	 3	   0.000000	  30.240437	   0.000000; % NG
	2	 0.0	 0.0	 3	   0.000000	  32.688017	   0.000000; % COW
	2	 0.0	 0.0	 3	   0.000000	  41.471828	   0.000000; % PEL
	2	 0.0	 0.0	 3	   0.000000	 115.064495	   0.000000; % NG
	2	 0.0	 0.0	 3	   0.000000	 115.204206	   0.000000; % NG
	2	 0.0	 0.0	 3	   0.000000	  41.470547	   0.000000; % PEL
	2	 0.0	 0.0	 3	   0.000000	  33.772588	   0.000000; % NG
	2	 0.0	 0.0	 3	   0.000000	  30.689403	   0.000000; % PEL
	2	 0.0	 0.0	 3	   0.000000	 122.430598	   0.000000; % PEL
	2	 0.0	 0.0	 3	   0.000000	  28.847748	   0.000000; % COW
	2	 0.0	 0.0	 3	   0.000000	  17.148809	   0.000000; % COW
	2	 0.0	 0.0	 3	   0.000000	 110.949041	   0.000000; % COW
	2	 0.0	 0.0	 3	   0.000000	  14.654502	   0.000000; % COW
	2	 0.0	 0.0	 3	   0.000000	  39.717113	   0.000000; % NG
	2	 0.0	 0.0	 3	   0.000000	  37.378448	   0.000000; % NG
	2	 0.0	 0.0	 3	   0.000000	  32.568505	   0.000000; % NG
	2	 0.0	 0.0	 3	   0.000000	 102.486191	   0.000000; % PEL
	2	 0.0	 0.0	 3	   0.000000	  39.805400	   0.000000; % COW
	2	 0.0	 0.0	 3	   0.000000	  35.887695	   0.000000; % NG
	2	 0.0	 0.0	 3	   0.000000	  34.875888	   0.000000; % COW
	2	 0.0	 0.0	 3	   0.000000	  35.353185	   0.000000; % NUC
	2	 0.0	 0.0	 3	   0.000000	  30.776665	   0.000000; % COW
	2	 0.0	 0.0	 3	   0.000000	  17.865819	   0.000000; % COW
	2	 0.0	 0.0	 3	   0.000000	   7.736606	   0.000000; % NUC
	2	 0.0	 0.0	 3	   0.000000	  23.730870	   0.000000; % COW
	2	 0.0	 0.0	 3	   0.000000	  19.615740	   0.000000; % COW
	2	 0.0	 0.0	 3	   0.000000	 126.364020	   0.000000; % PEL
	2	 0.0	 0.0	 3	   0.000000	  26.048613	   0.000000; % NG
	2	 0.0	 0.0	 3	   0.000000	  49.433678	   0.000000; % NG
	2	 0.0	 0.0	 3	   0.000000	  45.017624	   0.000000; % NG
	2	 0.0	 0.0	 3	   0.000000	  45.680453	   0.000000; % NG
	2	 0.0	 0.0	 3	   0.000000	   7.582360	   0.000000; % COW
	2	 0.0	 0.0	 3	   0.000000	  47.353316	   0.000000; % NG
	2	 0.0	 0.0	 3	   0.000000	  35.001368	   0.000000; % COW
	2	 0.0	 0.0	 3	   0.000000	  26.485192	   0.000000; % COW
	2	 0.0	 0.0	 3	   0.000000	 106.930470	   0.000000; % COW
	2	 0.0	 0.0	 3	   0.000000	  45.776978	   0.000000; % NG
	2	 0.0	 0.0	 3	   0.000000	  22.341037	   0.000000; % NG
	2	 0.0	 0.0	 3	   0.000000	  31.772498	   0.000000; % NG
	2	 0.0	 0.0	 3	   0.000000	  46.691824	   0.000000; % NG
	2	 0.0	 0.0	 3	   0.000000	 112.101745	   0.000000; % NG
	2	 0.0	 0.0	 3	   0.000000	  42.399562	   0.000000; % NG
	2	 0.0	 0.0	 3	   0.000000	  38.606710	   0.000000; % NG
	2	 0.0	 0.0	 3	   0.000000	  30.282845	   0.000000; % NG
	2	 0.0	 0.0	 3	   0.000000	  20.988765	   0.000000; % COW
	2	 0.0	 0.0	 3	   0.000000	  70.121914	   0.000000; % COW
	2	 0.0	 0.0	 3	   0.000000	  15.635881	   0.000000; % COW
	2	 0.0	 0.0	 3	   0.000000	  21.324090	   0.000000; % COW
	2	 0.0	 0.0	 3	   0.000000	  24.261790	   0.000000; % NG
	2	 0.0	 0.0	 3	   0.000000	  27.219473	   0.000000; % PEL
	2	 0.0	 0.0	 3	   0.000000	  25.070571	   0.000000; % PEL
	2	 0.0	 0.0	 3	   0.000000	  23.778376	   0.000000; % COW
	2	 0.0	 0.0	 3	   0.000000	  47.836592	   0.000000; % NG
	2	 0.0	 0.0	 3	   0.000000	  18.139403	   0.000000; % NG
	2	 0.0	 0.0	 3	   0.000000	  59.709961	   0.000000; % NG
	2	 0.0	 0.0	 3	   0.000000	  27.932728	   0.000000; % NG
	2	 0.0	 0.0	 3	   0.000000	  43.969640	   0.000000; % COW
	2	 0.0	 0.0	 3	   0.000000	  37.418251	   0.000000; % NG
	2	 0.0	 0.0	 3	   0.000000	   7.286141	   0.000000; % COW
	2	 0.0	 0.0	 3	   0.000000	  21.977340	   0.000000; % COW
	2	 0.0	 0.0	 3	   0.000000	  32.524074	   0.000000; % COW
	2	 0.0	 0.0	 3	   0.000000	  30.301475	   0.000000; % NUC
	2	 0.0	 0.0	 3	   0.000000	 102.658187	   0.000000; % NG
	2	 0.0	 0.0	 3	   0.000000	  24.160659	   0.000000; % NG
	2	 0.0	 0.0	 3	   0.000000	  36.024239	   0.000000; % PEL
	2	 0.0	 0.0	 3	   0.000000	  34.662110	   0.000000; % NG
	2	 0.0	 0.0	 3	   0.000000	  22.272332	   0.000000; % COW
	2	 0.0	 0.0	 3	   0.000000	  42.638448	   0.000000; % COW
	2	 0.0	 0.0	 3	   0.000000	  29.848201	   0.000000; % PEL
	2	 0.0	 0.0	 3	   0.000000	  27.343104	   0.000000; % NG
	2	 0.0	 0.0	 3	   0.000000	 112.135998	   0.000000; % PEL
	2	 0.0	 0.0	 3	   0.000000	 105.755788	   0.000000; % PEL
	2	 0.0	 0.0	 3	   0.000000	 115.628595	   0.000000; % NG
	2	 0.0	 0.0	 3	   0.000000	  98.927235	   0.000000; % PEL
	2	 0.0	 0.0	 3	   0.000000	 107.015504	   0.000000; % NG
	2	 0.0	 0.0	 3	   0.000000	 105.511425	   0.000000; % COW
	2	 0.0	 0.0	 3	   0.000000	 104.631348	   0.000000; % NG
	2	 0.0	 0.0	 3	   0.000000	  97.368340	   0.000000; % NG
	2	 0.0	 0.0	 3	   0.000000	 116.594277	   0.000000; % PEL
	2	 0.0	 0.0	 3	   0.000000	  38.730261	   0.000000; % PEL
	2	 0.0	 0.0	 3	   0.000000	  92.857929	   0.000000; % COW
	2	 0.0	 0.0	 3	   0.000000	 119.356585	   0.000000; % PEL
	2	 0.0	 0.0	 3	   0.000000	  16.916415	   0.000000; % NG
	2	 0.0	 0.0	 3	   0.000000	  43.167022	   0.000000; % NG
	2	 0.0	 0.0	 3	   0.000000	  12.660798	   0.000000; % COW
	2	 0.0	 0.0	 3	   0.000000	  29.479053	   0.000000; % COW
	2	 0.0	 0.0	 3	   0.000000	  16.495060	   0.000000; % PEL
	2	 0.0	 0.0	 3	   0.000000	  18.330120	   0.000000; % PEL
	2	 0.0	 0.0	 3	   0.000000	  33.426578	   0.000000; % COW
	2	 0.0	 0.0	 3	   0.000000	 108.787245	   0.000000; % NG
...
];

%% branch data
%	fbus	tbus	r	x	b	rateA	rateB	rateC	ratio	angle	status	angmin	angmax
mpc.branch = [
	1833	 1	 0.002607	 0.017462	 0.0324	 540.0	 540.0	 540.0	 0.0	 0.0	 1	 -30.0	 30.0;
	29	 2	 2.1e-05	 0.000125	 0.1386	 737.0	 737.0	 737.0	 0.0	 0.0	 1	 -30.0	 30.0;
	675	 2	 0.000145	 0.001877	 0.0635	 2487.0	 2487.0	 2487.0	 0.0	 0.0	 1	 -30.0	 30.0;
	1271	 2	 0.000319	 0.003234	 0.0838	 1841.0	 1841.0	 1841.0	 0.0	 0.0	 1	 -30.0	 30.0;
	30	 2	 2.1e-05	 0.000125	 0.1386	 737.0	 737.0	 737.0	 0.0	 0.0	 1	 -30.0	 30.0;
	142	 3	 0.006163	 0.041067	 0.0759	 446.0	 446.0	 446.0	 0.0	 0.0	 1	 -30.0	 30.0;
	677	 3	 0.000652	 0.004369	 0.0081	 558.0	 558.0	 558.0	 0.0	 0.0	 1	 -30.0	 30.0;
	1048	 4	 0.009733	 0.034089	 0.0185	 905.0	 905.0	 905.0	 0.0	 0.0	 1	 -30.0	 30.0;
	101	 5	 0.000277	 0.002015	 0.003	 288.0	 288.0	 288.0	 0.0	 0.0	 1	 -30.0	 30.0;
	286	 6	 0.00881	 0.033995	 0.0607	 289.0	 289.0	 289.0	 0.0	 0.0	 1	 -30.0	 30.0;
	329	 6	 0.004642	 0.019832	 0.0354	 255.0	 255.0	 255.0	 0.0	 0.0	 1	 -30.0	 30.0;
	737	 5	 0.008861	 0.03506	 0.0623	 288.0	 288.0	 288.0	 0.0	 0.0	 1	 -30.0	 30.0;
	760	 5	 0.006993	 0.032869	 0.0557	 255.0	 255.0	 255.0	 0.0	 0.0	 1	 -30.0	 30.0;
	1330	 6	 0.002173	 0.008731	 0.0152	 3441.0	 3441.0	 3441.0	 0.0	 0.0	 1	 -30.0	 30.0;
	1350	 5	 0.00077	 0.003121	 0.0051	 9629.0	 9629.0	 9629.0	 0.0	 0.0	 1	 -30.0	 30.0;
	1523	 6	 0.004109	 0.016138	 0.0284	 288.0	 288.0	 288.0	 0.0	 0.0	 1	 -30.0	 30.0;
	102	 8	 8.3e-05	 0.000907	 0.0202	 1034.0	 1034.0	 1034.0	 0.0	 0.0	 1	 -30.0	 30.0;
	316	 8	 0.000552	 0.006726	 0.0939	 1786.0	 1786.0	 1786.0	 0.0	 0.0	 1	 -30.0	 30.0;
	623	 8	 0.000512	 0.008012	 0.2455	 2462.0	 2462.0	 2462.0	 0.0	 0.0	 1	 -30.0	 30.0;
	882	 8	 0.001107	 0.00918	 0.1906	 1644.0	 1644.0	 1644.0	 0.0	 0.0	 1	 -30.0	 30.0;
	103	 7	 6.2e-05	 0.000741	 0.0173	 1095.0	 1095.0	 1095.0	 0.0	 0.0	 1	 -30.0	 30.0;
	623	 8	 0.000512	 0.008019	 0.2455	 2462.0	 2462.0	 2462.0	 0.0	 0.0	 1	 -30.0	 30.0;
	623	 7	 0.001153	 0.013123	 0.1841	 1433.0	 1433.0	 1433.0	 0.0	 0.0	 1	 -30.0	 30.0;
	113	 9	 0.000158	 0.000672	 0.0719	 331.0	 331.0	 331.0	 0.0	 0.0	 1	 -30.0	 30.0;
	1134	 9	 4.5e-05	 8.9e-05	 0.002	 268.0	 268.0	 268.0	 0.0	 0.0	 1	 -30.0	 30.0;
	346	 10	 0.00478	 0.028622	 0.0547	 455.0	 455.0	 455.0	 0.0	 0.0	 1	 -30.0	 30.0;
	345	 10	 0.00478	 0.028583	 0.0547	 455.0	 455.0	 455.0	 0.0	 0.0	 1	 -30.0	 30.0;
	106	 11	 0.000257	 0.000514	 0.0294	 53862.0	 53862.0	 53862.0	 0.0	 0.0	 1	 -30.0	 30.0;
	758	 12	 0.000257	 0.002153	 0.2147	 452.0	 452.0	 452.0	 0.0	 0.0	 1	 -30.0	 30.0;
	962	 12	 0.000277	 0.000869	 0.0931	 481.0	 481.0	 481.0	 0.0	 0.0	 1	 -30.0	 30.0;
	955	 13	 0.000237	 0.00083	 0.1863	 268.0	 268.0	 268.0	 0.0	 0.0	 1	 -30.0	 30.0;
	995	 13	 0.000178	 0.000612	 0.1377	 268.0	 268.0	 268.0	 0.0	 0.0	 1	 -30.0	 30.0;
	39	 14	 0.002568	 0.011753	 0.0203	 424.0	 424.0	 424.0	 0.0	 0.0	 1	 -30.0	 30.0;
	1428	 14	 0.002568	 0.011615	 0.0228	 290.0	 290.0	 290.0	 0.0	 0.0	 1	 -30.0	 30.0;
	1054	 16	 9.9e-05	 0.00077	 0.078	 379.0	 379.0	 379.0	 0.0	 0.0	 1	 -30.0	 30.0;
	1054	 15	 9.9e-05	 0.00077	 0.077	 379.0	 379.0	 379.0	 0.0	 0.0	 1	 -30.0	 30.0;
	1428	 17	 0.000514	 0.003437	 0.0061	 290.0	 290.0	 290.0	 0.0	 0.0	 1	 -30.0	 30.0;
	1432	 17	 0.005476	 0.036879	 0.1255	 522.0	 522.0	 522.0	 0.0	 0.0	 1	 -30.0	 30.0;
	39	 17	 0.000514	 0.003457	 0.0061	 418.0	 418.0	 418.0	 0.0	 0.0	 1	 -30.0	 30.0;
	869	 18	 0.003477	 0.01118	 0.0187	 304.0	 304.0	 304.0	 0.0	 0.0	 1	 -30.0	 30.0;
	1089	 18	 0.000612	 0.003121	 0.0152	 270.0	 270.0	 270.0	 0.0	 0.0	 1	 -30.0	 30.0;
	1164	 20	 2.4e-05	 0.000144	 0.0213	 701.0	 701.0	 701.0	 0.0	 0.0	 1	 -30.0	 30.0;
	1164	 19	 7.1e-05	 0.000162	 0.0162	 251.0	 251.0	 251.0	 0.0	 0.0	 1	 -30.0	 30.0;
	972	 21	 0.000257	 0.001165	 0.002	 405.0	 405.0	 405.0	 0.0	 0.0	 1	 -30.0	 30.0;
	476	 22	 0.005709	 0.037926	 0.0688	 492.0	 492.0	 492.0	 0.0	 0.0	 1	 -30.0	 30.0;
	1497	 22	 0.001758	 0.011654	 0.0208	 492.0	 492.0	 492.0	 0.0	 0.0	 1	 -30.0	 30.0;
	69	 23	 0.001383	 0.009462	 0.0172	 463.0	 463.0	 463.0	 0.0	 0.0	 1	 -30.0	 30.0;
	446	 23	 0.00156	 0.006933	 0.0121	 432.0	 432.0	 432.0	 0.0	 0.0	 1	 -30.0	 30.0;
	605	 23	 0.006376	 0.028733	 0.0506	 432.0	 432.0	 432.0	 0.0	 0.0	 1	 -30.0	 30.0;
	987	 23	 0.00158	 0.010627	 0.0192	 481.0	 481.0	 481.0	 0.0	 0.0	 1	 -30.0	 30.0;
	845	 25	 0.001086	 0.003536	 0.3766	 506.0	 506.0	 506.0	 0.0	 0.0	 1	 -30.0	 30.0;
	845	 26	 0.001086	 0.003536	 0.3766	 506.0	 506.0	 506.0	 0.0	 0.0	 1	 -30.0	 30.0;
	123	 27	 0.004741	 0.020385	 0.0334	 1479.0	 1479.0	 1479.0	 0.0	 0.0	 1	 -30.0	 30.0;
	1479	 27	 0.009027	 0.048869	 0.084	 351.0	 351.0	 351.0	 0.0	 0.0	 1	 -30.0	 30.0;
	1500	 27	 0.003516	 0.016257	 0.0273	 311.0	 311.0	 311.0	 0.0	 0.0	 1	 -30.0	 30.0;
	289	 28	 0.000514	 0.003417	 0.0278	 452.0	 452.0	 452.0	 0.0	 0.0	 1	 -30.0	 30.0;
	307	 28	 0.001084	 0.007198	 0.0132	 448.0	 448.0	 448.0	 0.0	 0.0	 1	 -30.0	 30.0;
	1451	 28	 0.000523	 0.002436	 0.0167	 348.0	 348.0	 348.0	 0.0	 0.0	 1	 -30.0	 30.0;
	289	 28	 0.000514	 0.003457	 0.0203	 356.0	 356.0	 356.0	 0.0	 0.0	 1	 -30.0	 30.0;
	307	 28	 0.001086	 0.007249	 0.0132	 540.0	 540.0	 540.0	 0.0	 0.0	 1	 -30.0	 30.0;
	1450	 28	 0.000553	 0.002469	 0.0157	 405.0	 405.0	 405.0	 0.0	 0.0	 1	 -30.0	 30.0;
	307	 28	 0.001086	 0.007269	 0.0132	 540.0	 540.0	 540.0	 0.0	 0.0	 1	 -30.0	 30.0;
	842	 31	 0.001837	 0.011694	 0.0759	 467.0	 467.0	 467.0	 0.0	 0.0	 1	 -30.0	 30.0;
	960	 31	 0.001067	 0.007131	 0.0132	 413.0	 413.0	 413.0	 0.0	 0.0	 1	 -30.0	 30.0;
	1269	 31	 0.001284	 0.008593	 0.0152	 541.0	 541.0	 541.0	 0.0	 0.0	 1	 -30.0	 30.0;
	1270	 31	 0.001284	 0.008593	 0.0162	 541.0	 541.0	 541.0	 0.0	 0.0	 1	 -30.0	 30.0;
	1270	 31	 0.001284	 0.008533	 0.0162	 541.0	 541.0	 541.0	 0.0	 0.0	 1	 -30.0	 30.0;
	212	 33	 0.000494	 0.000928	 0.0699	 29203.0	 29203.0	 29203.0	 0.0	 0.0	 1	 -30.0	 30.0;
	326	 33	 0.000184	 0.00159	 0.1661	 422.0	 422.0	 422.0	 0.0	 0.0	 1	 -30.0	 30.0;
	1153	 33	 0.000198	 0.001711	 0.1711	 385.0	 385.0	 385.0	 0.0	 0.0	 1	 -30.0	 30.0;
	1170	 33	 0.000751	 0.003358	 0.1534	 385.0	 385.0	 385.0	 0.0	 0.0	 1	 -30.0	 30.0;
	344	 2013	 0.000178	 0.001047	 0.1499	 452.0	 452.0	 452.0	 0.0	 0.0	 1	 -30.0	 30.0;
	489	 34	 0.000119	 0.000474	 0.0688	 452.0	 452.0	 452.0	 0.0	 0.0	 1	 -30.0	 30.0;
	955	 2013	 0.000316	 0.002232	 0.2774	 452.0	 452.0	 452.0	 0.0	 0.0	 1	 -30.0	 30.0;
	1257	 35	 0.037227	 0.106836	 0.0328	 270.0	 270.0	 270.0	 0.0	 0.0	 1	 -30.0	 30.0;
	1439	 35	 0.006089	 0.020756	 0.0067	 1408.0	 1408.0	 1408.0	 0.0	 0.0	 1	 -30.0	 30.0;
	846	 36	 0.000729	 0.005118	 0.0933	 389.0	 389.0	 389.0	 0.0	 0.0	 1	 -30.0	 30.0;
	846	 36	 0.000755	 0.005235	 0.0909	 419.0	 419.0	 419.0	 0.0	 0.0	 1	 -30.0	 30.0;
	228	 37	 0.001787	 0.01946	 0.4214	 1579.0	 1579.0	 1579.0	 0.0	 0.0	 1	 -30.0	 30.0;
	477	 38	 0.001719	 0.00877	 0.0157	 321.0	 321.0	 321.0	 0.0	 0.0	 1	 -30.0	 30.0;
	1179	 38	 0.009165	 0.04318	 0.077	 321.0	 321.0	 321.0	 0.0	 0.0	 1	 -30.0	 30.0;
	134	 39	 0.004879	 0.032454	 0.0602	 487.0	 487.0	 487.0	 0.0	 0.0	 1	 -30.0	 30.0;
	195	 39	 0.006341	 0.042746	 0.0785	 418.0	 418.0	 418.0	 0.0	 0.0	 1	 -30.0	 30.0;
	208	 39	 0.006914	 0.031249	 0.0547	 327.0	 327.0	 327.0	 0.0	 0.0	 1	 -30.0	 30.0;
	296	 40	 0.000582	 0.007652	 0.2643	 2487.0	 2487.0	 2487.0	 0.0	 0.0	 1	 -30.0	 30.0;
	766	 40	 0.001648	 0.021634	 0.748	 1470.0	 1470.0	 1470.0	 0.0	 0.0	 1	 -30.0	 30.0;
	950	 40	 0.000838	 0.014301	 0.5198	 2227.0	 2227.0	 2227.0	 0.0	 0.0	 1	 -30.0	 30.0;
	1282	 40	 0.001163	 0.015312	 0.5285	 2077.0	 2077.0	 2077.0	 0.0	 0.0	 1	 -30.0	 30.0;
	296	 40	 0.000575	 0.007576	 0.2614	 2487.0	 2487.0	 2487.0	 0.0	 0.0	 1	 -30.0	 30.0;
	766	 40	 0.001646	 0.021633	 0.7479	 1470.0	 1470.0	 1470.0	 0.0	 0.0	 1	 -30.0	 30.0;
	950	 40	 0.000838	 0.014287	 0.5198	 2229.0	 2229.0	 2229.0	 0.0	 0.0	 1	 -30.0	 30.0;
	1281	 40	 0.00117	 0.015339	 0.5285	 2074.0	 2074.0	 2074.0	 0.0	 0.0	 1	 -30.0	 30.0;
	1282	 40	 0.001821	 0.017874	 0.4318	 1382.0	 1382.0	 1382.0	 0.0	 0.0	 1	 -30.0	 30.0;
	558	 41	 0.000672	 0.003477	 0.0365	 254.0	 254.0	 254.0	 0.0	 0.0	 1	 -30.0	 30.0;
	1420	 42	 0.000632	 0.004188	 0.0081	 471.0	 471.0	 471.0	 0.0	 0.0	 1	 -30.0	 30.0;
	1420	 43	 0.000612	 0.004148	 0.0071	 471.0	 471.0	 471.0	 0.0	 0.0	 1	 -30.0	 30.0;
	1040	 44	 0.000672	 0.004405	 0.0081	 541.0	 541.0	 541.0	 0.0	 0.0	 1	 -30.0	 30.0;
	1521	 44	 0.000968	 0.004602	 0.0081	 304.0	 304.0	 304.0	 0.0	 0.0	 1	 -30.0	 30.0;
	1040	 44	 0.000632	 0.004444	 0.0081	 440.0	 440.0	 440.0	 0.0	 0.0	 1	 -30.0	 30.0;
	1524	 45	 0.001975	 0.013215	 0.0243	 541.0	 541.0	 541.0	 0.0	 0.0	 1	 -30.0	 30.0;
	1525	 45	 0.001956	 0.013037	 0.0243	 2348.0	 2348.0	 2348.0	 0.0	 0.0	 1	 -30.0	 30.0;
	1321	 46	 0.002933	 0.010267	 0.0032	 3004.0	 3004.0	 3004.0	 0.0	 0.0	 1	 -30.0	 30.0;
	1429	 46	 0.0028	 0.007511	 0.0022	 4003.0	 4003.0	 4003.0	 0.0	 0.0	 1	 -30.0	 30.0;
	49	 48	 2e-05	 0.000198	 0.0121	 261.0	 261.0	 261.0	 0.0	 0.0	 1	 -30.0	 30.0;
	49	 47	 2e-05	 0.000198	 0.0142	 261.0	 261.0	 261.0	 0.0	 0.0	 1	 -30.0	 30.0;
	277	 49	 0.000277	 0.000928	 0.2066	 31961.0	 31961.0	 31961.0	 0.0	 0.0	 1	 -30.0	 30.0;
	298	 49	 0.002037	 0.010904	 0.0187	 352.0	 352.0	 352.0	 0.0	 0.0	 1	 -30.0	 30.0;
	318	 49	 0.000415	 0.002015	 0.1266	 428.0	 428.0	 428.0	 0.0	 0.0	 1	 -30.0	 30.0;
	370	 49	 0.000395	 0.00156	 0.1893	 426.0	 426.0	 426.0	 0.0	 0.0	 1	 -30.0	 30.0;
	608	 49	 4e-05	 0.000178	 0.0152	 169660.0	 169660.0	 169660.0	 0.0	 0.0	 1	 -30.0	 30.0;
	836	 49	 0.001323	 0.012444	 0.0678	 935.0	 935.0	 935.0	 0.0	 0.0	 1	 -30.0	 30.0;
	1227	 49	 0.000454	 0.002133	 0.2511	 268.0	 268.0	 268.0	 0.0	 0.0	 1	 -30.0	 30.0;
	1381	 49	 0.000119	 0.000691	 0.1002	 387.0	 387.0	 387.0	 0.0	 0.0	 1	 -30.0	 30.0;
	1411	 49	 0.00083	 0.005175	 0.0203	 323.0	 323.0	 323.0	 0.0	 0.0	 1	 -30.0	 30.0;
	277	 49	 0.000277	 0.000928	 0.2086	 31961.0	 31961.0	 31961.0	 0.0	 0.0	 1	 -30.0	 30.0;
	836	 49	 0.001314	 0.012115	 0.0673	 943.0	 943.0	 943.0	 0.0	 0.0	 1	 -30.0	 30.0;
	1379	 49	 5.9e-05	 0.000217	 0.0496	 323.0	 323.0	 323.0	 0.0	 0.0	 1	 -30.0	 30.0;
	1378	 49	 5.9e-05	 0.000217	 0.0466	 323.0	 323.0	 323.0	 0.0	 0.0	 1	 -30.0	 30.0;
	1169	 50	 0.000158	 0.000948	 0.002	 348.0	 348.0	 348.0	 0.0	 0.0	 1	 -30.0	 30.0;
	704	 51	 0.001521	 0.007076	 0.0118	 302.0	 302.0	 302.0	 0.0	 0.0	 1	 -30.0	 30.0;
	1265	 51	 0.002469	 0.011457	 0.0203	 315.0	 315.0	 315.0	 0.0	 0.0	 1	 -30.0	 30.0;
	404	 52	 0.001442	 0.009699	 0.0172	 566.0	 566.0	 566.0	 0.0	 0.0	 1	 -30.0	 30.0;
	427	 52	 0.001422	 0.009541	 0.0172	 566.0	 566.0	 566.0	 0.0	 0.0	 1	 -30.0	 30.0;
	459	 53	 0.004681	 0.028227	 0.0516	 440.0	 440.0	 440.0	 0.0	 0.0	 1	 -30.0	 30.0;
	765	 53	 0.001185	 0.008	 0.0152	 575.0	 575.0	 575.0	 0.0	 0.0	 1	 -30.0	 30.0;
	1529	 53	 0.005333	 0.02722	 0.0491	 440.0	 440.0	 440.0	 0.0	 0.0	 1	 -30.0	 30.0;
	766	 54	 0.000145	 0.001911	 0.0661	 2487.0	 2487.0	 2487.0	 0.0	 0.0	 1	 -30.0	 30.0;
	1417	 54	 0.000253	 0.003323	 0.1148	 2487.0	 2487.0	 2487.0	 0.0	 0.0	 1	 -30.0	 30.0;
	1101	 56	 0.000494	 0.002252	 0.004	 406.0	 406.0	 406.0	 0.0	 0.0	 1	 -30.0	 30.0;
	1101	 55	 0.000494	 0.002252	 0.004	 406.0	 406.0	 406.0	 0.0	 0.0	 1	 -30.0	 30.0;
	97	 1827	 0.004563	 0.030696	 0.0557	 541.0	 541.0	 541.0	 0.0	 0.0	 1	 -30.0	 30.0;
	320	 1827	 0.009857	 0.04478	 0.077	 405.0	 405.0	 405.0	 0.0	 0.0	 1	 -30.0	 30.0;
	813	 1827	 0.017106	 0.078321	 0.1387	 362.0	 362.0	 362.0	 0.0	 0.0	 1	 -30.0	 30.0;
	1287	 1827	 0.010272	 0.048691	 0.0866	 354.0	 354.0	 354.0	 0.0	 0.0	 1	 -30.0	 30.0;
	461	 57	 0.012978	 0.059338	 0.1002	 409.0	 409.0	 409.0	 0.0	 0.0	 1	 -30.0	 30.0;
	827	 57	 0.01197	 0.056632	 0.0942	 262.0	 262.0	 262.0	 0.0	 0.0	 1	 -30.0	 30.0;
	1429	 58	 0.000578	 0.001156	 0.0004	 24825.0	 24825.0	 24825.0	 0.0	 0.0	 1	 -30.0	 30.0;
	1090	 60	 0.000316	 0.001679	 0.0192	 17970.0	 17970.0	 17970.0	 0.0	 0.0	 1	 -30.0	 30.0;
	1090	 59	 0.000316	 0.001679	 0.0192	 17970.0	 17970.0	 17970.0	 0.0	 0.0	 1	 -30.0	 30.0;
	713	 61	 0.000277	 0.000573	 0.0334	 48541.0	 48541.0	 48541.0	 0.0	 0.0	 1	 -30.0	 30.0;
	1032	 62	 0.001055	 0.004836	 0.0081	 432.0	 432.0	 432.0	 0.0	 0.0	 1	 -30.0	 30.0;
	998	 63	 0.002114	 0.008553	 0.0152	 346.0	 346.0	 346.0	 0.0	 0.0	 1	 -30.0	 30.0;
	342	 65	 0.000158	 0.000652	 0.084	 46138.0	 46138.0	 46138.0	 0.0	 0.0	 1	 -30.0	 30.0;
	894	 64	 0.000198	 0.000731	 0.0942	 385.0	 385.0	 385.0	 0.0	 0.0	 1	 -30.0	 30.0;
	1265	 66	 0.00324	 0.012616	 0.0225	 302.0	 302.0	 302.0	 0.0	 0.0	 1	 -30.0	 30.0;
	1397	 67	 0.007522	 0.029736	 0.0496	 303.0	 303.0	 303.0	 0.0	 0.0	 1	 -30.0	 30.0;
	1543	 67	 0.006809	 0.03043	 0.0521	 380.0	 380.0	 380.0	 0.0	 0.0	 1	 -30.0	 30.0;
	404	 69	 0.002153	 0.014736	 0.0273	 565.0	 565.0	 565.0	 0.0	 0.0	 1	 -30.0	 30.0;
	469	 68	 0.000581	 0.003838	 0.0071	 507.0	 507.0	 507.0	 0.0	 0.0	 1	 -30.0	 30.0;
	791	 68	 0.001857	 0.020306	 0.0557	 566.0	 566.0	 566.0	 0.0	 0.0	 1	 -30.0	 30.0;
	1348	 69	 0.002331	 0.015526	 0.0278	 549.0	 549.0	 549.0	 0.0	 0.0	 1	 -30.0	 30.0;
	1480	 68	 0.001345	 0.008968	 0.0162	 566.0	 566.0	 566.0	 0.0	 0.0	 1	 -30.0	 30.0;
	470	 68	 0.000573	 0.003911	 0.0071	 415.0	 415.0	 415.0	 0.0	 0.0	 1	 -30.0	 30.0;
	640	 68	 0.001896	 0.012701	 0.0233	 501.0	 501.0	 501.0	 0.0	 0.0	 1	 -30.0	 30.0;
	556	 70	 0.000602	 0.006717	 0.1357	 1725.0	 1725.0	 1725.0	 0.0	 0.0	 1	 -30.0	 30.0;
	792	 70	 0.00063	 0.007098	 0.1588	 1916.0	 1916.0	 1916.0	 0.0	 0.0	 1	 -30.0	 30.0;
	1421	 70	 0.000367	 0.004631	 0.1126	 2275.0	 2275.0	 2275.0	 0.0	 0.0	 1	 -30.0	 30.0;
	792	 70	 0.000472	 0.006201	 0.2137	 2487.0	 2487.0	 2487.0	 0.0	 0.0	 1	 -30.0	 30.0;
	1416	 70	 0.001504	 0.019298	 0.4577	 1648.0	 1648.0	 1648.0	 0.0	 0.0	 1	 -30.0	 30.0;
	203	 72	 0.000158	 0.001106	 0.1357	 461.0	 461.0	 461.0	 0.0	 0.0	 1	 -30.0	 30.0;
	375	 71	 0.000219	 0.00193	 0.1954	 407.0	 407.0	 407.0	 0.0	 0.0	 1	 -30.0	 30.0;
	403	 71	 0.000158	 0.000909	 0.1316	 428.0	 428.0	 428.0	 0.0	 0.0	 1	 -30.0	 30.0;
	982	 71	 0.000411	 0.00356	 0.3564	 416.0	 416.0	 416.0	 0.0	 0.0	 1	 -30.0	 30.0;
	1104	 72	 0.000158	 0.001264	 0.1286	 416.0	 416.0	 416.0	 0.0	 0.0	 1	 -30.0	 30.0;
	842	 73	 0.000198	 0.001383	 0.003	 420.0	 420.0	 420.0	 0.0	 0.0	 1	 -30.0	 30.0;
	842	 74	 0.000217	 0.001402	 0.003	 420.0	 420.0	 420.0	 0.0	 0.0	 1	 -30.0	 30.0;
	387	 75	 0.001304	 0.008691	 0.0152	 525.0	 525.0	 525.0	 0.0	 0.0	 1	 -30.0	 30.0;
	842	 75	 0.000691	 0.004662	 0.0091	 541.0	 541.0	 541.0	 0.0	 0.0	 1	 -30.0	 30.0;
	78	 76	 9.9e-05	 0.000415	 0.0456	 434.0	 434.0	 434.0	 0.0	 0.0	 1	 -30.0	 30.0;
	300	 77	 1e-06	 0.000104	 0.078	 1063.0	 1063.0	 1063.0	 0.0	 0.0	 1	 -30.0	 30.0;
	436	 77	 0.000353	 0.004584	 0.1184	 2357.0	 2357.0	 2357.0	 0.0	 0.0	 1	 -30.0	 30.0;
	705	 77	 0.000699	 0.009179	 0.3177	 2487.0	 2487.0	 2487.0	 0.0	 0.0	 1	 -30.0	 30.0;
	436	 77	 0.000353	 0.004584	 0.1184	 2357.0	 2357.0	 2357.0	 0.0	 0.0	 1	 -30.0	 30.0;
	705	 77	 0.000734	 0.009245	 0.3148	 2487.0	 2487.0	 2487.0	 0.0	 0.0	 1	 -30.0	 30.0;
	302	 77	 7e-06	 0.000104	 0.0029	 1382.0	 1382.0	 1382.0	 0.0	 0.0	 1	 -30.0	 30.0;
	301	 77	 7e-06	 0.000104	 0.0029	 1382.0	 1382.0	 1382.0	 0.0	 0.0	 1	 -30.0	 30.0;
	435	 78	 0.002556	 0.017333	 0.0805	 418.0	 418.0	 418.0	 0.0	 0.0	 1	 -30.0	 30.0;
	1040	 78	 0.008849	 0.062617	 0.1144	 471.0	 471.0	 471.0	 0.0	 0.0	 1	 -30.0	 30.0;
	1431	 79	 2.2e-05	 9.9e-05	 0.001	 405.0	 405.0	 405.0	 0.0	 0.0	 1	 -30.0	 30.0;
	1430	 80	 2e-05	 9.9e-05	 0.0	 306724.0	 306724.0	 306724.0	 0.0	 0.0	 1	 -30.0	 30.0;
	745	 81	 0.000573	 0.002588	 0.0051	 388.0	 388.0	 388.0	 0.0	 0.0	 1	 -30.0	 30.0;
	1432	 82	 2e-05	 0.000198	 0.001	 566.0	 566.0	 566.0	 0.0	 0.0	 1	 -30.0	 30.0;
	626	 83	 0.000138	 0.00077	 0.001	 272.0	 272.0	 272.0	 0.0	 0.0	 1	 -30.0	 30.0;
...